
This summary file was generated by HydroDyn  on 05-Aug-2020 at 14:42:55.




Volume Calculations(m^3)
------------------------
  Structure Volume     :    3.54412E+03
  Submerged Volume     :    2.12647E+03
  Marine Growth Volume :    0.00000E+00
  Ballasted Volume     :    0.00000E+00
              NOTE: Structure, Submerged and Marine Growth volumes are based on members not modelled with WAMIT
                      Ballasted volume is computed from all members which are marked as filled in the HydroDyn input file, regardless of PropPot flag



Buoyancy loads summed about ( 0.0, 0.0, 0.0 )
---------------------------------------------
                                BuoyFxi               BuoyFyi               BuoyFzi               BuoyMxi               BuoyMyi               BuoyMzi 
                                  (N)                   (N)                   (N)                  (N-m)                 (N-m)                 (N-m)  
 External:                  0.000000E+00          0.000000E+00          0.000000E+00          0.000000E+00          0.000000E+00          0.000000E+00
 Internal:                  0.000000E+00          0.000000E+00          0.000000E+00          0.000000E+00          0.000000E+00          0.000000E+00
 Total   :                  0.000000E+00          0.000000E+00          0.000000E+00          0.000000E+00          0.000000E+00          0.000000E+00
              NOTE: External buoyancy is based on members not modelled with WAMIT
                      Internal buoyancy is computed from all members which are marked as filled in the HydroDyn input file, regardless of PropPot flag
                    Total buoyancy does not include WAMIT-modelled buoyancy contribution



Weight loads about ( 0.0, 0.0, 0.0 )
------------------------------------
                                 MGFxi                 MGFyi                 MGFzi                 MGMxi                 MGMyi                 MGMzi  
                                  (N)                   (N)                   (N)                  (N-m)                 (N-m)                 (N-m)  
 Marine Growth:             0.000000E+00          0.000000E+00          0.000000E+00          0.000000E+00          0.000000E+00          0.000000E+00



Nodes


   i    JointIndx   JointOvrlp  InpMbrIndx     Nxi         Nyi         Nzi      InpMbrDist       R         dRdZ         t          tMG        MGDens      PropPot   FilledFlag   FillDens   FillFSLoc       Cd          Ca          Cp         AxCa        AxCp        JAxCd       JAxCa       JAxCp    NConn  Connection List
  (-)      (-)         (-)         (-)         (m)         (m)         (m)          (-)         (m)         (-)        (m)         (m)       (kg/m^3)      (-)         (-)       (kg/m^3)       (-)         (-)         (-)         (-)         (-)         (-)         (-)         (-)         (-)      (-)                  
     1           1           0           1      0.0000      0.0000    -30.0001      0.0000   4.750E+00   0.000E+00   7.000E-02   0.000E+00   0.000E+00           F           F   0.000E+00   0.000E+00   1.000E+00   1.000E+00   1.000E+00   1.000E+00   1.000E+00   0.000E+00   0.000E+00   1.000E+00      1     1
     2           2           0           1      0.0000      0.0000     20.0000      1.0000   4.750E+00   0.000E+00   7.000E-02   0.000E+00   0.000E+00           F           F   0.000E+00   0.000E+00   1.000E+00   1.000E+00   1.000E+00   1.000E+00   1.000E+00   0.000E+00   0.000E+00   1.000E+00      1   101
     3           3           0           1      0.0000      0.0000    -30.0000      0.0000   4.750E+00   0.000E+00   7.000E-02   0.000E+00   0.000E+00           F           F   0.000E+00   0.000E+00   1.000E+00   1.000E+00   1.000E+00   1.000E+00   1.000E+00   0.000E+00   0.000E+00   0.000E+00      1     2
     4           4           0           1      0.0000      0.0000      0.0000      0.6000   4.750E+00   0.000E+00   7.000E-02   0.000E+00   0.000E+00           F           F   0.000E+00   0.000E+00   1.000E+00   1.000E+00   1.000E+00   1.000E+00   1.000E+00   0.000E+00   0.000E+00   0.000E+00      1    62
     5          -1           0           1      0.0000      0.0000    -29.5000      0.0100   4.750E+00   0.000E+00   7.000E-02   0.000E+00   0.000E+00           F           F   0.000E+00   0.000E+00   1.000E+00   1.000E+00   1.000E+00   1.000E+00   1.000E+00   0.000E+00   0.000E+00   0.000E+00      2     2     4
     6          -1           0           1      0.0000      0.0000    -29.0000      0.0200   4.750E+00   0.000E+00   7.000E-02   0.000E+00   0.000E+00           F           F   0.000E+00   0.000E+00   1.000E+00   1.000E+00   1.000E+00   1.000E+00   1.000E+00   0.000E+00   0.000E+00   0.000E+00      2     4     5
     7          -1           0           1      0.0000      0.0000    -28.5000      0.0300   4.750E+00   0.000E+00   7.000E-02   0.000E+00   0.000E+00           F           F   0.000E+00   0.000E+00   1.000E+00   1.000E+00   1.000E+00   1.000E+00   1.000E+00   0.000E+00   0.000E+00   0.000E+00      2     5     6
     8          -1           0           1      0.0000      0.0000    -28.0000      0.0400   4.750E+00   0.000E+00   7.000E-02   0.000E+00   0.000E+00           F           F   0.000E+00   0.000E+00   1.000E+00   1.000E+00   1.000E+00   1.000E+00   1.000E+00   0.000E+00   0.000E+00   0.000E+00      2     6     7
     9          -1           0           1      0.0000      0.0000    -27.5000      0.0500   4.750E+00   0.000E+00   7.000E-02   0.000E+00   0.000E+00           F           F   0.000E+00   0.000E+00   1.000E+00   1.000E+00   1.000E+00   1.000E+00   1.000E+00   0.000E+00   0.000E+00   0.000E+00      2     7     8
    10          -1           0           1      0.0000      0.0000    -27.0000      0.0600   4.750E+00   0.000E+00   7.000E-02   0.000E+00   0.000E+00           F           F   0.000E+00   0.000E+00   1.000E+00   1.000E+00   1.000E+00   1.000E+00   1.000E+00   0.000E+00   0.000E+00   0.000E+00      2     8     9
    11          -1           0           1      0.0000      0.0000    -26.5000      0.0700   4.750E+00   0.000E+00   7.000E-02   0.000E+00   0.000E+00           F           F   0.000E+00   0.000E+00   1.000E+00   1.000E+00   1.000E+00   1.000E+00   1.000E+00   0.000E+00   0.000E+00   0.000E+00      2     9    10
    12          -1           0           1      0.0000      0.0000    -26.0000      0.0800   4.750E+00   0.000E+00   7.000E-02   0.000E+00   0.000E+00           F           F   0.000E+00   0.000E+00   1.000E+00   1.000E+00   1.000E+00   1.000E+00   1.000E+00   0.000E+00   0.000E+00   0.000E+00      2    10    11
    13          -1           0           1      0.0000      0.0000    -25.5000      0.0900   4.750E+00   0.000E+00   7.000E-02   0.000E+00   0.000E+00           F           F   0.000E+00   0.000E+00   1.000E+00   1.000E+00   1.000E+00   1.000E+00   1.000E+00   0.000E+00   0.000E+00   0.000E+00      2    11    12
    14          -1           0           1      0.0000      0.0000    -25.0000      0.1000   4.750E+00   0.000E+00   7.000E-02   0.000E+00   0.000E+00           F           F   0.000E+00   0.000E+00   1.000E+00   1.000E+00   1.000E+00   1.000E+00   1.000E+00   0.000E+00   0.000E+00   0.000E+00      2    12    13
    15          -1           0           1      0.0000      0.0000    -24.5000      0.1100   4.750E+00   0.000E+00   7.000E-02   0.000E+00   0.000E+00           F           F   0.000E+00   0.000E+00   1.000E+00   1.000E+00   1.000E+00   1.000E+00   1.000E+00   0.000E+00   0.000E+00   0.000E+00      2    13    14
    16          -1           0           1      0.0000      0.0000    -24.0000      0.1200   4.750E+00   0.000E+00   7.000E-02   0.000E+00   0.000E+00           F           F   0.000E+00   0.000E+00   1.000E+00   1.000E+00   1.000E+00   1.000E+00   1.000E+00   0.000E+00   0.000E+00   0.000E+00      2    14    15
    17          -1           0           1      0.0000      0.0000    -23.5000      0.1300   4.750E+00   0.000E+00   7.000E-02   0.000E+00   0.000E+00           F           F   0.000E+00   0.000E+00   1.000E+00   1.000E+00   1.000E+00   1.000E+00   1.000E+00   0.000E+00   0.000E+00   0.000E+00      2    15    16
    18          -1           0           1      0.0000      0.0000    -23.0000      0.1400   4.750E+00   0.000E+00   7.000E-02   0.000E+00   0.000E+00           F           F   0.000E+00   0.000E+00   1.000E+00   1.000E+00   1.000E+00   1.000E+00   1.000E+00   0.000E+00   0.000E+00   0.000E+00      2    16    17
    19          -1           0           1      0.0000      0.0000    -22.5000      0.1500   4.750E+00   0.000E+00   7.000E-02   0.000E+00   0.000E+00           F           F   0.000E+00   0.000E+00   1.000E+00   1.000E+00   1.000E+00   1.000E+00   1.000E+00   0.000E+00   0.000E+00   0.000E+00      2    17    18
    20          -1           0           1      0.0000      0.0000    -22.0000      0.1600   4.750E+00   0.000E+00   7.000E-02   0.000E+00   0.000E+00           F           F   0.000E+00   0.000E+00   1.000E+00   1.000E+00   1.000E+00   1.000E+00   1.000E+00   0.000E+00   0.000E+00   0.000E+00      2    18    19
    21          -1           0           1      0.0000      0.0000    -21.5000      0.1700   4.750E+00   0.000E+00   7.000E-02   0.000E+00   0.000E+00           F           F   0.000E+00   0.000E+00   1.000E+00   1.000E+00   1.000E+00   1.000E+00   1.000E+00   0.000E+00   0.000E+00   0.000E+00      2    19    20
    22          -1           0           1      0.0000      0.0000    -21.0000      0.1800   4.750E+00   0.000E+00   7.000E-02   0.000E+00   0.000E+00           F           F   0.000E+00   0.000E+00   1.000E+00   1.000E+00   1.000E+00   1.000E+00   1.000E+00   0.000E+00   0.000E+00   0.000E+00      2    20    21
    23          -1           0           1      0.0000      0.0000    -20.5000      0.1900   4.750E+00   0.000E+00   7.000E-02   0.000E+00   0.000E+00           F           F   0.000E+00   0.000E+00   1.000E+00   1.000E+00   1.000E+00   1.000E+00   1.000E+00   0.000E+00   0.000E+00   0.000E+00      2    21    22
    24          -1           0           1      0.0000      0.0000    -20.0000      0.2000   4.750E+00   0.000E+00   7.000E-02   0.000E+00   0.000E+00           F           F   0.000E+00   0.000E+00   1.000E+00   1.000E+00   1.000E+00   1.000E+00   1.000E+00   0.000E+00   0.000E+00   0.000E+00      2    22    23
    25          -1           0           1      0.0000      0.0000    -19.5000      0.2100   4.750E+00   0.000E+00   7.000E-02   0.000E+00   0.000E+00           F           F   0.000E+00   0.000E+00   1.000E+00   1.000E+00   1.000E+00   1.000E+00   1.000E+00   0.000E+00   0.000E+00   0.000E+00      2    23    24
    26          -1           0           1      0.0000      0.0000    -19.0000      0.2200   4.750E+00   0.000E+00   7.000E-02   0.000E+00   0.000E+00           F           F   0.000E+00   0.000E+00   1.000E+00   1.000E+00   1.000E+00   1.000E+00   1.000E+00   0.000E+00   0.000E+00   0.000E+00      2    24    25
    27          -1           0           1      0.0000      0.0000    -18.5000      0.2300   4.750E+00   0.000E+00   7.000E-02   0.000E+00   0.000E+00           F           F   0.000E+00   0.000E+00   1.000E+00   1.000E+00   1.000E+00   1.000E+00   1.000E+00   0.000E+00   0.000E+00   0.000E+00      2    25    26
    28          -1           0           1      0.0000      0.0000    -18.0000      0.2400   4.750E+00   0.000E+00   7.000E-02   0.000E+00   0.000E+00           F           F   0.000E+00   0.000E+00   1.000E+00   1.000E+00   1.000E+00   1.000E+00   1.000E+00   0.000E+00   0.000E+00   0.000E+00      2    26    27
    29          -1           0           1      0.0000      0.0000    -17.5000      0.2500   4.750E+00   0.000E+00   7.000E-02   0.000E+00   0.000E+00           F           F   0.000E+00   0.000E+00   1.000E+00   1.000E+00   1.000E+00   1.000E+00   1.000E+00   0.000E+00   0.000E+00   0.000E+00      2    27    28
    30          -1           0           1      0.0000      0.0000    -17.0000      0.2600   4.750E+00   0.000E+00   7.000E-02   0.000E+00   0.000E+00           F           F   0.000E+00   0.000E+00   1.000E+00   1.000E+00   1.000E+00   1.000E+00   1.000E+00   0.000E+00   0.000E+00   0.000E+00      2    28    29
    31          -1           0           1      0.0000      0.0000    -16.5000      0.2700   4.750E+00   0.000E+00   7.000E-02   0.000E+00   0.000E+00           F           F   0.000E+00   0.000E+00   1.000E+00   1.000E+00   1.000E+00   1.000E+00   1.000E+00   0.000E+00   0.000E+00   0.000E+00      2    29    30
    32          -1           0           1      0.0000      0.0000    -16.0000      0.2800   4.750E+00   0.000E+00   7.000E-02   0.000E+00   0.000E+00           F           F   0.000E+00   0.000E+00   1.000E+00   1.000E+00   1.000E+00   1.000E+00   1.000E+00   0.000E+00   0.000E+00   0.000E+00      2    30    31
    33          -1           0           1      0.0000      0.0000    -15.5000      0.2900   4.750E+00   0.000E+00   7.000E-02   0.000E+00   0.000E+00           F           F   0.000E+00   0.000E+00   1.000E+00   1.000E+00   1.000E+00   1.000E+00   1.000E+00   0.000E+00   0.000E+00   0.000E+00      2    31    32
    34          -1           0           1      0.0000      0.0000    -15.0000      0.3000   4.750E+00   0.000E+00   7.000E-02   0.000E+00   0.000E+00           F           F   0.000E+00   0.000E+00   1.000E+00   1.000E+00   1.000E+00   1.000E+00   1.000E+00   0.000E+00   0.000E+00   0.000E+00      2    32    33
    35          -1           0           1      0.0000      0.0000    -14.5000      0.3100   4.750E+00   0.000E+00   7.000E-02   0.000E+00   0.000E+00           F           F   0.000E+00   0.000E+00   1.000E+00   1.000E+00   1.000E+00   1.000E+00   1.000E+00   0.000E+00   0.000E+00   0.000E+00      2    33    34
    36          -1           0           1      0.0000      0.0000    -14.0000      0.3200   4.750E+00   0.000E+00   7.000E-02   0.000E+00   0.000E+00           F           F   0.000E+00   0.000E+00   1.000E+00   1.000E+00   1.000E+00   1.000E+00   1.000E+00   0.000E+00   0.000E+00   0.000E+00      2    34    35
    37          -1           0           1      0.0000      0.0000    -13.5000      0.3300   4.750E+00   0.000E+00   7.000E-02   0.000E+00   0.000E+00           F           F   0.000E+00   0.000E+00   1.000E+00   1.000E+00   1.000E+00   1.000E+00   1.000E+00   0.000E+00   0.000E+00   0.000E+00      2    35    36
    38          -1           0           1      0.0000      0.0000    -13.0000      0.3400   4.750E+00   0.000E+00   7.000E-02   0.000E+00   0.000E+00           F           F   0.000E+00   0.000E+00   1.000E+00   1.000E+00   1.000E+00   1.000E+00   1.000E+00   0.000E+00   0.000E+00   0.000E+00      2    36    37
    39          -1           0           1      0.0000      0.0000    -12.5000      0.3500   4.750E+00   0.000E+00   7.000E-02   0.000E+00   0.000E+00           F           F   0.000E+00   0.000E+00   1.000E+00   1.000E+00   1.000E+00   1.000E+00   1.000E+00   0.000E+00   0.000E+00   0.000E+00      2    37    38
    40          -1           0           1      0.0000      0.0000    -12.0000      0.3600   4.750E+00   0.000E+00   7.000E-02   0.000E+00   0.000E+00           F           F   0.000E+00   0.000E+00   1.000E+00   1.000E+00   1.000E+00   1.000E+00   1.000E+00   0.000E+00   0.000E+00   0.000E+00      2    38    39
    41          -1           0           1      0.0000      0.0000    -11.5000      0.3700   4.750E+00   0.000E+00   7.000E-02   0.000E+00   0.000E+00           F           F   0.000E+00   0.000E+00   1.000E+00   1.000E+00   1.000E+00   1.000E+00   1.000E+00   0.000E+00   0.000E+00   0.000E+00      2    39    40
    42          -1           0           1      0.0000      0.0000    -11.0000      0.3800   4.750E+00   0.000E+00   7.000E-02   0.000E+00   0.000E+00           F           F   0.000E+00   0.000E+00   1.000E+00   1.000E+00   1.000E+00   1.000E+00   1.000E+00   0.000E+00   0.000E+00   0.000E+00      2    40    41
    43          -1           0           1      0.0000      0.0000    -10.5000      0.3900   4.750E+00   0.000E+00   7.000E-02   0.000E+00   0.000E+00           F           F   0.000E+00   0.000E+00   1.000E+00   1.000E+00   1.000E+00   1.000E+00   1.000E+00   0.000E+00   0.000E+00   0.000E+00      2    41    42
    44          -1           0           1      0.0000      0.0000    -10.0000      0.4000   4.750E+00   0.000E+00   7.000E-02   0.000E+00   0.000E+00           F           F   0.000E+00   0.000E+00   1.000E+00   1.000E+00   1.000E+00   1.000E+00   1.000E+00   0.000E+00   0.000E+00   0.000E+00      2    42    43
    45          -1           0           1      0.0000      0.0000     -9.5000      0.4100   4.750E+00   0.000E+00   7.000E-02   0.000E+00   0.000E+00           F           F   0.000E+00   0.000E+00   1.000E+00   1.000E+00   1.000E+00   1.000E+00   1.000E+00   0.000E+00   0.000E+00   0.000E+00      2    43    44
    46          -1           0           1      0.0000      0.0000     -9.0000      0.4200   4.750E+00   0.000E+00   7.000E-02   0.000E+00   0.000E+00           F           F   0.000E+00   0.000E+00   1.000E+00   1.000E+00   1.000E+00   1.000E+00   1.000E+00   0.000E+00   0.000E+00   0.000E+00      2    44    45
    47          -1           0           1      0.0000      0.0000     -8.5000      0.4300   4.750E+00   0.000E+00   7.000E-02   0.000E+00   0.000E+00           F           F   0.000E+00   0.000E+00   1.000E+00   1.000E+00   1.000E+00   1.000E+00   1.000E+00   0.000E+00   0.000E+00   0.000E+00      2    45    46
    48          -1           0           1      0.0000      0.0000     -8.0000      0.4400   4.750E+00   0.000E+00   7.000E-02   0.000E+00   0.000E+00           F           F   0.000E+00   0.000E+00   1.000E+00   1.000E+00   1.000E+00   1.000E+00   1.000E+00   0.000E+00   0.000E+00   0.000E+00      2    46    47
    49          -1           0           1      0.0000      0.0000     -7.5000      0.4500   4.750E+00   0.000E+00   7.000E-02   0.000E+00   0.000E+00           F           F   0.000E+00   0.000E+00   1.000E+00   1.000E+00   1.000E+00   1.000E+00   1.000E+00   0.000E+00   0.000E+00   0.000E+00      2    47    48
    50          -1           0           1      0.0000      0.0000     -7.0000      0.4600   4.750E+00   0.000E+00   7.000E-02   0.000E+00   0.000E+00           F           F   0.000E+00   0.000E+00   1.000E+00   1.000E+00   1.000E+00   1.000E+00   1.000E+00   0.000E+00   0.000E+00   0.000E+00      2    48    49
    51          -1           0           1      0.0000      0.0000     -6.5000      0.4700   4.750E+00   0.000E+00   7.000E-02   0.000E+00   0.000E+00           F           F   0.000E+00   0.000E+00   1.000E+00   1.000E+00   1.000E+00   1.000E+00   1.000E+00   0.000E+00   0.000E+00   0.000E+00      2    49    50
    52          -1           0           1      0.0000      0.0000     -6.0000      0.4800   4.750E+00   0.000E+00   7.000E-02   0.000E+00   0.000E+00           F           F   0.000E+00   0.000E+00   1.000E+00   1.000E+00   1.000E+00   1.000E+00   1.000E+00   0.000E+00   0.000E+00   0.000E+00      2    50    51
    53          -1           0           1      0.0000      0.0000     -5.5000      0.4900   4.750E+00   0.000E+00   7.000E-02   0.000E+00   0.000E+00           F           F   0.000E+00   0.000E+00   1.000E+00   1.000E+00   1.000E+00   1.000E+00   1.000E+00   0.000E+00   0.000E+00   0.000E+00      2    51    52
    54          -1           0           1      0.0000      0.0000     -5.0000      0.5000   4.750E+00   0.000E+00   7.000E-02   0.000E+00   0.000E+00           F           F   0.000E+00   0.000E+00   1.000E+00   1.000E+00   1.000E+00   1.000E+00   1.000E+00   0.000E+00   0.000E+00   0.000E+00      2    52    53
    55          -1           0           1      0.0000      0.0000     -4.5000      0.5100   4.750E+00   0.000E+00   7.000E-02   0.000E+00   0.000E+00           F           F   0.000E+00   0.000E+00   1.000E+00   1.000E+00   1.000E+00   1.000E+00   1.000E+00   0.000E+00   0.000E+00   0.000E+00      2    53    54
    56          -1           0           1      0.0000      0.0000     -4.0000      0.5200   4.750E+00   0.000E+00   7.000E-02   0.000E+00   0.000E+00           F           F   0.000E+00   0.000E+00   1.000E+00   1.000E+00   1.000E+00   1.000E+00   1.000E+00   0.000E+00   0.000E+00   0.000E+00      2    54    55
    57          -1           0           1      0.0000      0.0000     -3.5000      0.5300   4.750E+00   0.000E+00   7.000E-02   0.000E+00   0.000E+00           F           F   0.000E+00   0.000E+00   1.000E+00   1.000E+00   1.000E+00   1.000E+00   1.000E+00   0.000E+00   0.000E+00   0.000E+00      2    55    56
    58          -1           0           1      0.0000      0.0000     -3.0000      0.5400   4.750E+00   0.000E+00   7.000E-02   0.000E+00   0.000E+00           F           F   0.000E+00   0.000E+00   1.000E+00   1.000E+00   1.000E+00   1.000E+00   1.000E+00   0.000E+00   0.000E+00   0.000E+00      2    56    57
    59          -1           0           1      0.0000      0.0000     -2.5000      0.5500   4.750E+00   0.000E+00   7.000E-02   0.000E+00   0.000E+00           F           F   0.000E+00   0.000E+00   1.000E+00   1.000E+00   1.000E+00   1.000E+00   1.000E+00   0.000E+00   0.000E+00   0.000E+00      2    57    58
    60          -1           0           1      0.0000      0.0000     -2.0000      0.5600   4.750E+00   0.000E+00   7.000E-02   0.000E+00   0.000E+00           F           F   0.000E+00   0.000E+00   1.000E+00   1.000E+00   1.000E+00   1.000E+00   1.000E+00   0.000E+00   0.000E+00   0.000E+00      2    58    59
    61          -1           0           1      0.0000      0.0000     -1.5000      0.5700   4.750E+00   0.000E+00   7.000E-02   0.000E+00   0.000E+00           F           F   0.000E+00   0.000E+00   1.000E+00   1.000E+00   1.000E+00   1.000E+00   1.000E+00   0.000E+00   0.000E+00   0.000E+00      2    59    60
    62          -1           0           1      0.0000      0.0000     -1.0000      0.5800   4.750E+00   0.000E+00   7.000E-02   0.000E+00   0.000E+00           F           F   0.000E+00   0.000E+00   1.000E+00   1.000E+00   1.000E+00   1.000E+00   1.000E+00   0.000E+00   0.000E+00   0.000E+00      2    60    61
    63          -1           0           1      0.0000      0.0000     -0.5000      0.5900   4.750E+00   0.000E+00   7.000E-02   0.000E+00   0.000E+00           F           F   0.000E+00   0.000E+00   1.000E+00   1.000E+00   1.000E+00   1.000E+00   1.000E+00   0.000E+00   0.000E+00   0.000E+00      2    61    62
    64          -1           0           1      0.0000      0.0000      0.5000      0.6100   4.750E+00   0.000E+00   7.000E-02   0.000E+00   0.000E+00           F           F   0.000E+00   0.000E+00   1.000E+00   1.000E+00   1.000E+00   1.000E+00   1.000E+00   0.000E+00   0.000E+00   0.000E+00      2     3    63
    65          -1           0           1      0.0000      0.0000      1.0000      0.6200   4.750E+00   0.000E+00   7.000E-02   0.000E+00   0.000E+00           F           F   0.000E+00   0.000E+00   1.000E+00   1.000E+00   1.000E+00   1.000E+00   1.000E+00   0.000E+00   0.000E+00   0.000E+00      2    63    64
    66          -1           0           1      0.0000      0.0000      1.5000      0.6300   4.750E+00   0.000E+00   7.000E-02   0.000E+00   0.000E+00           F           F   0.000E+00   0.000E+00   1.000E+00   1.000E+00   1.000E+00   1.000E+00   1.000E+00   0.000E+00   0.000E+00   0.000E+00      2    64    65
    67          -1           0           1      0.0000      0.0000      2.0000      0.6400   4.750E+00   0.000E+00   7.000E-02   0.000E+00   0.000E+00           F           F   0.000E+00   0.000E+00   1.000E+00   1.000E+00   1.000E+00   1.000E+00   1.000E+00   0.000E+00   0.000E+00   0.000E+00      2    65    66
    68          -1           0           1      0.0000      0.0000      2.5000      0.6500   4.750E+00   0.000E+00   7.000E-02   0.000E+00   0.000E+00           F           F   0.000E+00   0.000E+00   1.000E+00   1.000E+00   1.000E+00   1.000E+00   1.000E+00   0.000E+00   0.000E+00   0.000E+00      2    66    67
    69          -1           0           1      0.0000      0.0000      3.0000      0.6600   4.750E+00   0.000E+00   7.000E-02   0.000E+00   0.000E+00           F           F   0.000E+00   0.000E+00   1.000E+00   1.000E+00   1.000E+00   1.000E+00   1.000E+00   0.000E+00   0.000E+00   0.000E+00      2    67    68
    70          -1           0           1      0.0000      0.0000      3.5000      0.6700   4.750E+00   0.000E+00   7.000E-02   0.000E+00   0.000E+00           F           F   0.000E+00   0.000E+00   1.000E+00   1.000E+00   1.000E+00   1.000E+00   1.000E+00   0.000E+00   0.000E+00   0.000E+00      2    68    69
    71          -1           0           1      0.0000      0.0000      4.0000      0.6800   4.750E+00   0.000E+00   7.000E-02   0.000E+00   0.000E+00           F           F   0.000E+00   0.000E+00   1.000E+00   1.000E+00   1.000E+00   1.000E+00   1.000E+00   0.000E+00   0.000E+00   0.000E+00      2    69    70
    72          -1           0           1      0.0000      0.0000      4.5000      0.6900   4.750E+00   0.000E+00   7.000E-02   0.000E+00   0.000E+00           F           F   0.000E+00   0.000E+00   1.000E+00   1.000E+00   1.000E+00   1.000E+00   1.000E+00   0.000E+00   0.000E+00   0.000E+00      2    70    71
    73          -1           0           1      0.0000      0.0000      5.0000      0.7000   4.750E+00   0.000E+00   7.000E-02   0.000E+00   0.000E+00           F           F   0.000E+00   0.000E+00   1.000E+00   1.000E+00   1.000E+00   1.000E+00   1.000E+00   0.000E+00   0.000E+00   0.000E+00      2    71    72
    74          -1           0           1      0.0000      0.0000      5.5000      0.7100   4.750E+00   0.000E+00   7.000E-02   0.000E+00   0.000E+00           F           F   0.000E+00   0.000E+00   1.000E+00   1.000E+00   1.000E+00   1.000E+00   1.000E+00   0.000E+00   0.000E+00   0.000E+00      2    72    73
    75          -1           0           1      0.0000      0.0000      6.0000      0.7200   4.750E+00   0.000E+00   7.000E-02   0.000E+00   0.000E+00           F           F   0.000E+00   0.000E+00   1.000E+00   1.000E+00   1.000E+00   1.000E+00   1.000E+00   0.000E+00   0.000E+00   0.000E+00      2    73    74
    76          -1           0           1      0.0000      0.0000      6.5000      0.7300   4.750E+00   0.000E+00   7.000E-02   0.000E+00   0.000E+00           F           F   0.000E+00   0.000E+00   1.000E+00   1.000E+00   1.000E+00   1.000E+00   1.000E+00   0.000E+00   0.000E+00   0.000E+00      2    74    75
    77          -1           0           1      0.0000      0.0000      7.0000      0.7400   4.750E+00   0.000E+00   7.000E-02   0.000E+00   0.000E+00           F           F   0.000E+00   0.000E+00   1.000E+00   1.000E+00   1.000E+00   1.000E+00   1.000E+00   0.000E+00   0.000E+00   0.000E+00      2    75    76
    78          -1           0           1      0.0000      0.0000      7.5000      0.7500   4.750E+00   0.000E+00   7.000E-02   0.000E+00   0.000E+00           F           F   0.000E+00   0.000E+00   1.000E+00   1.000E+00   1.000E+00   1.000E+00   1.000E+00   0.000E+00   0.000E+00   0.000E+00      2    76    77
    79          -1           0           1      0.0000      0.0000      8.0000      0.7600   4.750E+00   0.000E+00   7.000E-02   0.000E+00   0.000E+00           F           F   0.000E+00   0.000E+00   1.000E+00   1.000E+00   1.000E+00   1.000E+00   1.000E+00   0.000E+00   0.000E+00   0.000E+00      2    77    78
    80          -1           0           1      0.0000      0.0000      8.5000      0.7700   4.750E+00   0.000E+00   7.000E-02   0.000E+00   0.000E+00           F           F   0.000E+00   0.000E+00   1.000E+00   1.000E+00   1.000E+00   1.000E+00   1.000E+00   0.000E+00   0.000E+00   0.000E+00      2    78    79
    81          -1           0           1      0.0000      0.0000      9.0000      0.7800   4.750E+00   0.000E+00   7.000E-02   0.000E+00   0.000E+00           F           F   0.000E+00   0.000E+00   1.000E+00   1.000E+00   1.000E+00   1.000E+00   1.000E+00   0.000E+00   0.000E+00   0.000E+00      2    79    80
    82          -1           0           1      0.0000      0.0000      9.5000      0.7900   4.750E+00   0.000E+00   7.000E-02   0.000E+00   0.000E+00           F           F   0.000E+00   0.000E+00   1.000E+00   1.000E+00   1.000E+00   1.000E+00   1.000E+00   0.000E+00   0.000E+00   0.000E+00      2    80    81
    83          -1           0           1      0.0000      0.0000     10.0000      0.8000   4.750E+00   0.000E+00   7.000E-02   0.000E+00   0.000E+00           F           F   0.000E+00   0.000E+00   1.000E+00   1.000E+00   1.000E+00   1.000E+00   1.000E+00   0.000E+00   0.000E+00   0.000E+00      2    81    82
    84          -1           0           1      0.0000      0.0000     10.5000      0.8100   4.750E+00   0.000E+00   7.000E-02   0.000E+00   0.000E+00           F           F   0.000E+00   0.000E+00   1.000E+00   1.000E+00   1.000E+00   1.000E+00   1.000E+00   0.000E+00   0.000E+00   0.000E+00      2    82    83
    85          -1           0           1      0.0000      0.0000     11.0000      0.8200   4.750E+00   0.000E+00   7.000E-02   0.000E+00   0.000E+00           F           F   0.000E+00   0.000E+00   1.000E+00   1.000E+00   1.000E+00   1.000E+00   1.000E+00   0.000E+00   0.000E+00   0.000E+00      2    83    84
    86          -1           0           1      0.0000      0.0000     11.5000      0.8300   4.750E+00   0.000E+00   7.000E-02   0.000E+00   0.000E+00           F           F   0.000E+00   0.000E+00   1.000E+00   1.000E+00   1.000E+00   1.000E+00   1.000E+00   0.000E+00   0.000E+00   0.000E+00      2    84    85
    87          -1           0           1      0.0000      0.0000     12.0000      0.8400   4.750E+00   0.000E+00   7.000E-02   0.000E+00   0.000E+00           F           F   0.000E+00   0.000E+00   1.000E+00   1.000E+00   1.000E+00   1.000E+00   1.000E+00   0.000E+00   0.000E+00   0.000E+00      2    85    86
    88          -1           0           1      0.0000      0.0000     12.5000      0.8500   4.750E+00   0.000E+00   7.000E-02   0.000E+00   0.000E+00           F           F   0.000E+00   0.000E+00   1.000E+00   1.000E+00   1.000E+00   1.000E+00   1.000E+00   0.000E+00   0.000E+00   0.000E+00      2    86    87
    89          -1           0           1      0.0000      0.0000     13.0000      0.8600   4.750E+00   0.000E+00   7.000E-02   0.000E+00   0.000E+00           F           F   0.000E+00   0.000E+00   1.000E+00   1.000E+00   1.000E+00   1.000E+00   1.000E+00   0.000E+00   0.000E+00   0.000E+00      2    87    88
    90          -1           0           1      0.0000      0.0000     13.5000      0.8700   4.750E+00   0.000E+00   7.000E-02   0.000E+00   0.000E+00           F           F   0.000E+00   0.000E+00   1.000E+00   1.000E+00   1.000E+00   1.000E+00   1.000E+00   0.000E+00   0.000E+00   0.000E+00      2    88    89
    91          -1           0           1      0.0000      0.0000     14.0000      0.8800   4.750E+00   0.000E+00   7.000E-02   0.000E+00   0.000E+00           F           F   0.000E+00   0.000E+00   1.000E+00   1.000E+00   1.000E+00   1.000E+00   1.000E+00   0.000E+00   0.000E+00   0.000E+00      2    89    90
    92          -1           0           1      0.0000      0.0000     14.5000      0.8900   4.750E+00   0.000E+00   7.000E-02   0.000E+00   0.000E+00           F           F   0.000E+00   0.000E+00   1.000E+00   1.000E+00   1.000E+00   1.000E+00   1.000E+00   0.000E+00   0.000E+00   0.000E+00      2    90    91
    93          -1           0           1      0.0000      0.0000     15.0000      0.9000   4.750E+00   0.000E+00   7.000E-02   0.000E+00   0.000E+00           F           F   0.000E+00   0.000E+00   1.000E+00   1.000E+00   1.000E+00   1.000E+00   1.000E+00   0.000E+00   0.000E+00   0.000E+00      2    91    92
    94          -1           0           1      0.0000      0.0000     15.5000      0.9100   4.750E+00   0.000E+00   7.000E-02   0.000E+00   0.000E+00           F           F   0.000E+00   0.000E+00   1.000E+00   1.000E+00   1.000E+00   1.000E+00   1.000E+00   0.000E+00   0.000E+00   0.000E+00      2    92    93
    95          -1           0           1      0.0000      0.0000     16.0000      0.9200   4.750E+00   0.000E+00   7.000E-02   0.000E+00   0.000E+00           F           F   0.000E+00   0.000E+00   1.000E+00   1.000E+00   1.000E+00   1.000E+00   1.000E+00   0.000E+00   0.000E+00   0.000E+00      2    93    94
    96          -1           0           1      0.0000      0.0000     16.5000      0.9300   4.750E+00   0.000E+00   7.000E-02   0.000E+00   0.000E+00           F           F   0.000E+00   0.000E+00   1.000E+00   1.000E+00   1.000E+00   1.000E+00   1.000E+00   0.000E+00   0.000E+00   0.000E+00      2    94    95
    97          -1           0           1      0.0000      0.0000     17.0000      0.9400   4.750E+00   0.000E+00   7.000E-02   0.000E+00   0.000E+00           F           F   0.000E+00   0.000E+00   1.000E+00   1.000E+00   1.000E+00   1.000E+00   1.000E+00   0.000E+00   0.000E+00   0.000E+00      2    95    96
    98          -1           0           1      0.0000      0.0000     17.5000      0.9500   4.750E+00   0.000E+00   7.000E-02   0.000E+00   0.000E+00           F           F   0.000E+00   0.000E+00   1.000E+00   1.000E+00   1.000E+00   1.000E+00   1.000E+00   0.000E+00   0.000E+00   0.000E+00      2    96    97
    99          -1           0           1      0.0000      0.0000     18.0000      0.9600   4.750E+00   0.000E+00   7.000E-02   0.000E+00   0.000E+00           F           F   0.000E+00   0.000E+00   1.000E+00   1.000E+00   1.000E+00   1.000E+00   1.000E+00   0.000E+00   0.000E+00   0.000E+00      2    97    98
   100          -1           0           1      0.0000      0.0000     18.5000      0.9700   4.750E+00   0.000E+00   7.000E-02   0.000E+00   0.000E+00           F           F   0.000E+00   0.000E+00   1.000E+00   1.000E+00   1.000E+00   1.000E+00   1.000E+00   0.000E+00   0.000E+00   0.000E+00      2    98    99
   101          -1           0           1      0.0000      0.0000     19.0000      0.9800   4.750E+00   0.000E+00   7.000E-02   0.000E+00   0.000E+00           F           F   0.000E+00   0.000E+00   1.000E+00   1.000E+00   1.000E+00   1.000E+00   1.000E+00   0.000E+00   0.000E+00   0.000E+00      2    99   100
   102          -1           0           1      0.0000      0.0000     19.5000      0.9900   4.750E+00   0.000E+00   7.000E-02   0.000E+00   0.000E+00           F           F   0.000E+00   0.000E+00   1.000E+00   1.000E+00   1.000E+00   1.000E+00   1.000E+00   0.000E+00   0.000E+00   0.000E+00      2   100   101
   103           3           0           1      0.0000      0.0000    -30.0000      0.0000   4.750E+00   0.000E+00   7.000E-02   0.000E+00   0.000E+00           F           F   0.000E+00   0.000E+00   1.000E+00   1.000E+00   1.000E+00   1.000E+00   1.000E+00   0.000E+00   0.000E+00   0.000E+00      1     1
   104           4           0           1      0.0000      0.0000      0.0000      0.6000   4.750E+00   0.000E+00   7.000E-02   0.000E+00   0.000E+00           F           F   0.000E+00   0.000E+00   1.000E+00   1.000E+00   1.000E+00   1.000E+00   1.000E+00   0.000E+00   0.000E+00   0.000E+00      1     3



Elements


   i    node1  node2      Length       Volume       MGVolume          R1          tMG1           t1             R2          tMG2           t2          MGDens1       MGDens2        PropPot     FilledFlag   FillDensity    FillFSLoc     FillMass         Cd1            Ca1          Cp1          AxCa1         AxCp1        JAxCd1        JAxCa1        JAxCp1          Cd2           Ca2           Cp2          AxCa2         AxCp2        JAxCd2        JAxCa2        JAxCp2   
  (-)    (-)    (-)        (m)         (m^3)         (m^3)           (m)           (m)           (m)           (m)           (m)           (m)        (kg/m^3)      (kg/m^3)         (-)           (-)        (kg/m^3)         (-)          (kg)           (-)            (-)          (-)           (-)           (-)           (-)           (-)           (-)           (-)            (-)          (-)           (-)           (-)           (-)           (-)           (-)    
     1      1    103   1.00000E-04   7.08822E-03   0.00000E+00   4.75000E+00   0.00000E+00   7.00000E-02   4.75000E+00   0.00000E+00   7.00000E-02   0.00000E+00   0.00000E+00             F             F   0.00000E+00   0.00000E+00   0.00000E+00   1.00000E+00   1.00000E+00   1.00000E+00   1.00000E+00   1.00000E+00   0.00000E+00   0.00000E+00   1.00000E+00   1.00000E+00   1.00000E+00   1.00000E+00   1.00000E+00   1.00000E+00   0.00000E+00   0.00000E+00   0.00000E+00
     2      3      5   5.00000E-01   3.54411E+01   0.00000E+00   4.75000E+00   0.00000E+00   7.00000E-02   4.75000E+00   0.00000E+00   7.00000E-02   0.00000E+00   0.00000E+00             F             F   0.00000E+00   0.00000E+00   0.00000E+00   1.00000E+00   1.00000E+00   1.00000E+00   1.00000E+00   1.00000E+00   0.00000E+00   0.00000E+00   0.00000E+00   1.00000E+00   1.00000E+00   1.00000E+00   1.00000E+00   1.00000E+00   0.00000E+00   0.00000E+00   0.00000E+00
     3    104     64   5.00000E-01   3.54411E+01   0.00000E+00   4.75000E+00   0.00000E+00   7.00000E-02   4.75000E+00   0.00000E+00   7.00000E-02   0.00000E+00   0.00000E+00             F             F   0.00000E+00   0.00000E+00   0.00000E+00   1.00000E+00   1.00000E+00   1.00000E+00   1.00000E+00   1.00000E+00   0.00000E+00   0.00000E+00   0.00000E+00   1.00000E+00   1.00000E+00   1.00000E+00   1.00000E+00   1.00000E+00   0.00000E+00   0.00000E+00   0.00000E+00
     4      5      6   5.00000E-01   3.54411E+01   0.00000E+00   4.75000E+00   0.00000E+00   7.00000E-02   4.75000E+00   0.00000E+00   7.00000E-02   0.00000E+00   0.00000E+00             F             F   0.00000E+00   0.00000E+00   0.00000E+00   1.00000E+00   1.00000E+00   1.00000E+00   1.00000E+00   1.00000E+00   0.00000E+00   0.00000E+00   0.00000E+00   1.00000E+00   1.00000E+00   1.00000E+00   1.00000E+00   1.00000E+00   0.00000E+00   0.00000E+00   0.00000E+00
     5      6      7   5.00000E-01   3.54411E+01   0.00000E+00   4.75000E+00   0.00000E+00   7.00000E-02   4.75000E+00   0.00000E+00   7.00000E-02   0.00000E+00   0.00000E+00             F             F   0.00000E+00   0.00000E+00   0.00000E+00   1.00000E+00   1.00000E+00   1.00000E+00   1.00000E+00   1.00000E+00   0.00000E+00   0.00000E+00   0.00000E+00   1.00000E+00   1.00000E+00   1.00000E+00   1.00000E+00   1.00000E+00   0.00000E+00   0.00000E+00   0.00000E+00
     6      7      8   5.00000E-01   3.54411E+01   0.00000E+00   4.75000E+00   0.00000E+00   7.00000E-02   4.75000E+00   0.00000E+00   7.00000E-02   0.00000E+00   0.00000E+00             F             F   0.00000E+00   0.00000E+00   0.00000E+00   1.00000E+00   1.00000E+00   1.00000E+00   1.00000E+00   1.00000E+00   0.00000E+00   0.00000E+00   0.00000E+00   1.00000E+00   1.00000E+00   1.00000E+00   1.00000E+00   1.00000E+00   0.00000E+00   0.00000E+00   0.00000E+00
     7      8      9   5.00000E-01   3.54411E+01   0.00000E+00   4.75000E+00   0.00000E+00   7.00000E-02   4.75000E+00   0.00000E+00   7.00000E-02   0.00000E+00   0.00000E+00             F             F   0.00000E+00   0.00000E+00   0.00000E+00   1.00000E+00   1.00000E+00   1.00000E+00   1.00000E+00   1.00000E+00   0.00000E+00   0.00000E+00   0.00000E+00   1.00000E+00   1.00000E+00   1.00000E+00   1.00000E+00   1.00000E+00   0.00000E+00   0.00000E+00   0.00000E+00
     8      9     10   5.00000E-01   3.54411E+01   0.00000E+00   4.75000E+00   0.00000E+00   7.00000E-02   4.75000E+00   0.00000E+00   7.00000E-02   0.00000E+00   0.00000E+00             F             F   0.00000E+00   0.00000E+00   0.00000E+00   1.00000E+00   1.00000E+00   1.00000E+00   1.00000E+00   1.00000E+00   0.00000E+00   0.00000E+00   0.00000E+00   1.00000E+00   1.00000E+00   1.00000E+00   1.00000E+00   1.00000E+00   0.00000E+00   0.00000E+00   0.00000E+00
     9     10     11   5.00000E-01   3.54411E+01   0.00000E+00   4.75000E+00   0.00000E+00   7.00000E-02   4.75000E+00   0.00000E+00   7.00000E-02   0.00000E+00   0.00000E+00             F             F   0.00000E+00   0.00000E+00   0.00000E+00   1.00000E+00   1.00000E+00   1.00000E+00   1.00000E+00   1.00000E+00   0.00000E+00   0.00000E+00   0.00000E+00   1.00000E+00   1.00000E+00   1.00000E+00   1.00000E+00   1.00000E+00   0.00000E+00   0.00000E+00   0.00000E+00
    10     11     12   5.00000E-01   3.54411E+01   0.00000E+00   4.75000E+00   0.00000E+00   7.00000E-02   4.75000E+00   0.00000E+00   7.00000E-02   0.00000E+00   0.00000E+00             F             F   0.00000E+00   0.00000E+00   0.00000E+00   1.00000E+00   1.00000E+00   1.00000E+00   1.00000E+00   1.00000E+00   0.00000E+00   0.00000E+00   0.00000E+00   1.00000E+00   1.00000E+00   1.00000E+00   1.00000E+00   1.00000E+00   0.00000E+00   0.00000E+00   0.00000E+00
    11     12     13   5.00000E-01   3.54411E+01   0.00000E+00   4.75000E+00   0.00000E+00   7.00000E-02   4.75000E+00   0.00000E+00   7.00000E-02   0.00000E+00   0.00000E+00             F             F   0.00000E+00   0.00000E+00   0.00000E+00   1.00000E+00   1.00000E+00   1.00000E+00   1.00000E+00   1.00000E+00   0.00000E+00   0.00000E+00   0.00000E+00   1.00000E+00   1.00000E+00   1.00000E+00   1.00000E+00   1.00000E+00   0.00000E+00   0.00000E+00   0.00000E+00
    12     13     14   5.00000E-01   3.54411E+01   0.00000E+00   4.75000E+00   0.00000E+00   7.00000E-02   4.75000E+00   0.00000E+00   7.00000E-02   0.00000E+00   0.00000E+00             F             F   0.00000E+00   0.00000E+00   0.00000E+00   1.00000E+00   1.00000E+00   1.00000E+00   1.00000E+00   1.00000E+00   0.00000E+00   0.00000E+00   0.00000E+00   1.00000E+00   1.00000E+00   1.00000E+00   1.00000E+00   1.00000E+00   0.00000E+00   0.00000E+00   0.00000E+00
    13     14     15   5.00000E-01   3.54411E+01   0.00000E+00   4.75000E+00   0.00000E+00   7.00000E-02   4.75000E+00   0.00000E+00   7.00000E-02   0.00000E+00   0.00000E+00             F             F   0.00000E+00   0.00000E+00   0.00000E+00   1.00000E+00   1.00000E+00   1.00000E+00   1.00000E+00   1.00000E+00   0.00000E+00   0.00000E+00   0.00000E+00   1.00000E+00   1.00000E+00   1.00000E+00   1.00000E+00   1.00000E+00   0.00000E+00   0.00000E+00   0.00000E+00
    14     15     16   5.00000E-01   3.54411E+01   0.00000E+00   4.75000E+00   0.00000E+00   7.00000E-02   4.75000E+00   0.00000E+00   7.00000E-02   0.00000E+00   0.00000E+00             F             F   0.00000E+00   0.00000E+00   0.00000E+00   1.00000E+00   1.00000E+00   1.00000E+00   1.00000E+00   1.00000E+00   0.00000E+00   0.00000E+00   0.00000E+00   1.00000E+00   1.00000E+00   1.00000E+00   1.00000E+00   1.00000E+00   0.00000E+00   0.00000E+00   0.00000E+00
    15     16     17   5.00000E-01   3.54411E+01   0.00000E+00   4.75000E+00   0.00000E+00   7.00000E-02   4.75000E+00   0.00000E+00   7.00000E-02   0.00000E+00   0.00000E+00             F             F   0.00000E+00   0.00000E+00   0.00000E+00   1.00000E+00   1.00000E+00   1.00000E+00   1.00000E+00   1.00000E+00   0.00000E+00   0.00000E+00   0.00000E+00   1.00000E+00   1.00000E+00   1.00000E+00   1.00000E+00   1.00000E+00   0.00000E+00   0.00000E+00   0.00000E+00
    16     17     18   5.00000E-01   3.54411E+01   0.00000E+00   4.75000E+00   0.00000E+00   7.00000E-02   4.75000E+00   0.00000E+00   7.00000E-02   0.00000E+00   0.00000E+00             F             F   0.00000E+00   0.00000E+00   0.00000E+00   1.00000E+00   1.00000E+00   1.00000E+00   1.00000E+00   1.00000E+00   0.00000E+00   0.00000E+00   0.00000E+00   1.00000E+00   1.00000E+00   1.00000E+00   1.00000E+00   1.00000E+00   0.00000E+00   0.00000E+00   0.00000E+00
    17     18     19   5.00000E-01   3.54411E+01   0.00000E+00   4.75000E+00   0.00000E+00   7.00000E-02   4.75000E+00   0.00000E+00   7.00000E-02   0.00000E+00   0.00000E+00             F             F   0.00000E+00   0.00000E+00   0.00000E+00   1.00000E+00   1.00000E+00   1.00000E+00   1.00000E+00   1.00000E+00   0.00000E+00   0.00000E+00   0.00000E+00   1.00000E+00   1.00000E+00   1.00000E+00   1.00000E+00   1.00000E+00   0.00000E+00   0.00000E+00   0.00000E+00
    18     19     20   5.00000E-01   3.54411E+01   0.00000E+00   4.75000E+00   0.00000E+00   7.00000E-02   4.75000E+00   0.00000E+00   7.00000E-02   0.00000E+00   0.00000E+00             F             F   0.00000E+00   0.00000E+00   0.00000E+00   1.00000E+00   1.00000E+00   1.00000E+00   1.00000E+00   1.00000E+00   0.00000E+00   0.00000E+00   0.00000E+00   1.00000E+00   1.00000E+00   1.00000E+00   1.00000E+00   1.00000E+00   0.00000E+00   0.00000E+00   0.00000E+00
    19     20     21   5.00000E-01   3.54411E+01   0.00000E+00   4.75000E+00   0.00000E+00   7.00000E-02   4.75000E+00   0.00000E+00   7.00000E-02   0.00000E+00   0.00000E+00             F             F   0.00000E+00   0.00000E+00   0.00000E+00   1.00000E+00   1.00000E+00   1.00000E+00   1.00000E+00   1.00000E+00   0.00000E+00   0.00000E+00   0.00000E+00   1.00000E+00   1.00000E+00   1.00000E+00   1.00000E+00   1.00000E+00   0.00000E+00   0.00000E+00   0.00000E+00
    20     21     22   5.00000E-01   3.54411E+01   0.00000E+00   4.75000E+00   0.00000E+00   7.00000E-02   4.75000E+00   0.00000E+00   7.00000E-02   0.00000E+00   0.00000E+00             F             F   0.00000E+00   0.00000E+00   0.00000E+00   1.00000E+00   1.00000E+00   1.00000E+00   1.00000E+00   1.00000E+00   0.00000E+00   0.00000E+00   0.00000E+00   1.00000E+00   1.00000E+00   1.00000E+00   1.00000E+00   1.00000E+00   0.00000E+00   0.00000E+00   0.00000E+00
    21     22     23   5.00000E-01   3.54411E+01   0.00000E+00   4.75000E+00   0.00000E+00   7.00000E-02   4.75000E+00   0.00000E+00   7.00000E-02   0.00000E+00   0.00000E+00             F             F   0.00000E+00   0.00000E+00   0.00000E+00   1.00000E+00   1.00000E+00   1.00000E+00   1.00000E+00   1.00000E+00   0.00000E+00   0.00000E+00   0.00000E+00   1.00000E+00   1.00000E+00   1.00000E+00   1.00000E+00   1.00000E+00   0.00000E+00   0.00000E+00   0.00000E+00
    22     23     24   5.00000E-01   3.54411E+01   0.00000E+00   4.75000E+00   0.00000E+00   7.00000E-02   4.75000E+00   0.00000E+00   7.00000E-02   0.00000E+00   0.00000E+00             F             F   0.00000E+00   0.00000E+00   0.00000E+00   1.00000E+00   1.00000E+00   1.00000E+00   1.00000E+00   1.00000E+00   0.00000E+00   0.00000E+00   0.00000E+00   1.00000E+00   1.00000E+00   1.00000E+00   1.00000E+00   1.00000E+00   0.00000E+00   0.00000E+00   0.00000E+00
    23     24     25   5.00000E-01   3.54411E+01   0.00000E+00   4.75000E+00   0.00000E+00   7.00000E-02   4.75000E+00   0.00000E+00   7.00000E-02   0.00000E+00   0.00000E+00             F             F   0.00000E+00   0.00000E+00   0.00000E+00   1.00000E+00   1.00000E+00   1.00000E+00   1.00000E+00   1.00000E+00   0.00000E+00   0.00000E+00   0.00000E+00   1.00000E+00   1.00000E+00   1.00000E+00   1.00000E+00   1.00000E+00   0.00000E+00   0.00000E+00   0.00000E+00
    24     25     26   5.00000E-01   3.54411E+01   0.00000E+00   4.75000E+00   0.00000E+00   7.00000E-02   4.75000E+00   0.00000E+00   7.00000E-02   0.00000E+00   0.00000E+00             F             F   0.00000E+00   0.00000E+00   0.00000E+00   1.00000E+00   1.00000E+00   1.00000E+00   1.00000E+00   1.00000E+00   0.00000E+00   0.00000E+00   0.00000E+00   1.00000E+00   1.00000E+00   1.00000E+00   1.00000E+00   1.00000E+00   0.00000E+00   0.00000E+00   0.00000E+00
    25     26     27   5.00000E-01   3.54411E+01   0.00000E+00   4.75000E+00   0.00000E+00   7.00000E-02   4.75000E+00   0.00000E+00   7.00000E-02   0.00000E+00   0.00000E+00             F             F   0.00000E+00   0.00000E+00   0.00000E+00   1.00000E+00   1.00000E+00   1.00000E+00   1.00000E+00   1.00000E+00   0.00000E+00   0.00000E+00   0.00000E+00   1.00000E+00   1.00000E+00   1.00000E+00   1.00000E+00   1.00000E+00   0.00000E+00   0.00000E+00   0.00000E+00
    26     27     28   5.00000E-01   3.54411E+01   0.00000E+00   4.75000E+00   0.00000E+00   7.00000E-02   4.75000E+00   0.00000E+00   7.00000E-02   0.00000E+00   0.00000E+00             F             F   0.00000E+00   0.00000E+00   0.00000E+00   1.00000E+00   1.00000E+00   1.00000E+00   1.00000E+00   1.00000E+00   0.00000E+00   0.00000E+00   0.00000E+00   1.00000E+00   1.00000E+00   1.00000E+00   1.00000E+00   1.00000E+00   0.00000E+00   0.00000E+00   0.00000E+00
    27     28     29   5.00000E-01   3.54411E+01   0.00000E+00   4.75000E+00   0.00000E+00   7.00000E-02   4.75000E+00   0.00000E+00   7.00000E-02   0.00000E+00   0.00000E+00             F             F   0.00000E+00   0.00000E+00   0.00000E+00   1.00000E+00   1.00000E+00   1.00000E+00   1.00000E+00   1.00000E+00   0.00000E+00   0.00000E+00   0.00000E+00   1.00000E+00   1.00000E+00   1.00000E+00   1.00000E+00   1.00000E+00   0.00000E+00   0.00000E+00   0.00000E+00
    28     29     30   5.00000E-01   3.54411E+01   0.00000E+00   4.75000E+00   0.00000E+00   7.00000E-02   4.75000E+00   0.00000E+00   7.00000E-02   0.00000E+00   0.00000E+00             F             F   0.00000E+00   0.00000E+00   0.00000E+00   1.00000E+00   1.00000E+00   1.00000E+00   1.00000E+00   1.00000E+00   0.00000E+00   0.00000E+00   0.00000E+00   1.00000E+00   1.00000E+00   1.00000E+00   1.00000E+00   1.00000E+00   0.00000E+00   0.00000E+00   0.00000E+00
    29     30     31   5.00000E-01   3.54411E+01   0.00000E+00   4.75000E+00   0.00000E+00   7.00000E-02   4.75000E+00   0.00000E+00   7.00000E-02   0.00000E+00   0.00000E+00             F             F   0.00000E+00   0.00000E+00   0.00000E+00   1.00000E+00   1.00000E+00   1.00000E+00   1.00000E+00   1.00000E+00   0.00000E+00   0.00000E+00   0.00000E+00   1.00000E+00   1.00000E+00   1.00000E+00   1.00000E+00   1.00000E+00   0.00000E+00   0.00000E+00   0.00000E+00
    30     31     32   5.00000E-01   3.54411E+01   0.00000E+00   4.75000E+00   0.00000E+00   7.00000E-02   4.75000E+00   0.00000E+00   7.00000E-02   0.00000E+00   0.00000E+00             F             F   0.00000E+00   0.00000E+00   0.00000E+00   1.00000E+00   1.00000E+00   1.00000E+00   1.00000E+00   1.00000E+00   0.00000E+00   0.00000E+00   0.00000E+00   1.00000E+00   1.00000E+00   1.00000E+00   1.00000E+00   1.00000E+00   0.00000E+00   0.00000E+00   0.00000E+00
    31     32     33   5.00000E-01   3.54411E+01   0.00000E+00   4.75000E+00   0.00000E+00   7.00000E-02   4.75000E+00   0.00000E+00   7.00000E-02   0.00000E+00   0.00000E+00             F             F   0.00000E+00   0.00000E+00   0.00000E+00   1.00000E+00   1.00000E+00   1.00000E+00   1.00000E+00   1.00000E+00   0.00000E+00   0.00000E+00   0.00000E+00   1.00000E+00   1.00000E+00   1.00000E+00   1.00000E+00   1.00000E+00   0.00000E+00   0.00000E+00   0.00000E+00
    32     33     34   5.00000E-01   3.54411E+01   0.00000E+00   4.75000E+00   0.00000E+00   7.00000E-02   4.75000E+00   0.00000E+00   7.00000E-02   0.00000E+00   0.00000E+00             F             F   0.00000E+00   0.00000E+00   0.00000E+00   1.00000E+00   1.00000E+00   1.00000E+00   1.00000E+00   1.00000E+00   0.00000E+00   0.00000E+00   0.00000E+00   1.00000E+00   1.00000E+00   1.00000E+00   1.00000E+00   1.00000E+00   0.00000E+00   0.00000E+00   0.00000E+00
    33     34     35   5.00000E-01   3.54411E+01   0.00000E+00   4.75000E+00   0.00000E+00   7.00000E-02   4.75000E+00   0.00000E+00   7.00000E-02   0.00000E+00   0.00000E+00             F             F   0.00000E+00   0.00000E+00   0.00000E+00   1.00000E+00   1.00000E+00   1.00000E+00   1.00000E+00   1.00000E+00   0.00000E+00   0.00000E+00   0.00000E+00   1.00000E+00   1.00000E+00   1.00000E+00   1.00000E+00   1.00000E+00   0.00000E+00   0.00000E+00   0.00000E+00
    34     35     36   5.00000E-01   3.54411E+01   0.00000E+00   4.75000E+00   0.00000E+00   7.00000E-02   4.75000E+00   0.00000E+00   7.00000E-02   0.00000E+00   0.00000E+00             F             F   0.00000E+00   0.00000E+00   0.00000E+00   1.00000E+00   1.00000E+00   1.00000E+00   1.00000E+00   1.00000E+00   0.00000E+00   0.00000E+00   0.00000E+00   1.00000E+00   1.00000E+00   1.00000E+00   1.00000E+00   1.00000E+00   0.00000E+00   0.00000E+00   0.00000E+00
    35     36     37   5.00000E-01   3.54411E+01   0.00000E+00   4.75000E+00   0.00000E+00   7.00000E-02   4.75000E+00   0.00000E+00   7.00000E-02   0.00000E+00   0.00000E+00             F             F   0.00000E+00   0.00000E+00   0.00000E+00   1.00000E+00   1.00000E+00   1.00000E+00   1.00000E+00   1.00000E+00   0.00000E+00   0.00000E+00   0.00000E+00   1.00000E+00   1.00000E+00   1.00000E+00   1.00000E+00   1.00000E+00   0.00000E+00   0.00000E+00   0.00000E+00
    36     37     38   5.00000E-01   3.54411E+01   0.00000E+00   4.75000E+00   0.00000E+00   7.00000E-02   4.75000E+00   0.00000E+00   7.00000E-02   0.00000E+00   0.00000E+00             F             F   0.00000E+00   0.00000E+00   0.00000E+00   1.00000E+00   1.00000E+00   1.00000E+00   1.00000E+00   1.00000E+00   0.00000E+00   0.00000E+00   0.00000E+00   1.00000E+00   1.00000E+00   1.00000E+00   1.00000E+00   1.00000E+00   0.00000E+00   0.00000E+00   0.00000E+00
    37     38     39   5.00000E-01   3.54411E+01   0.00000E+00   4.75000E+00   0.00000E+00   7.00000E-02   4.75000E+00   0.00000E+00   7.00000E-02   0.00000E+00   0.00000E+00             F             F   0.00000E+00   0.00000E+00   0.00000E+00   1.00000E+00   1.00000E+00   1.00000E+00   1.00000E+00   1.00000E+00   0.00000E+00   0.00000E+00   0.00000E+00   1.00000E+00   1.00000E+00   1.00000E+00   1.00000E+00   1.00000E+00   0.00000E+00   0.00000E+00   0.00000E+00
    38     39     40   5.00000E-01   3.54411E+01   0.00000E+00   4.75000E+00   0.00000E+00   7.00000E-02   4.75000E+00   0.00000E+00   7.00000E-02   0.00000E+00   0.00000E+00             F             F   0.00000E+00   0.00000E+00   0.00000E+00   1.00000E+00   1.00000E+00   1.00000E+00   1.00000E+00   1.00000E+00   0.00000E+00   0.00000E+00   0.00000E+00   1.00000E+00   1.00000E+00   1.00000E+00   1.00000E+00   1.00000E+00   0.00000E+00   0.00000E+00   0.00000E+00
    39     40     41   5.00000E-01   3.54411E+01   0.00000E+00   4.75000E+00   0.00000E+00   7.00000E-02   4.75000E+00   0.00000E+00   7.00000E-02   0.00000E+00   0.00000E+00             F             F   0.00000E+00   0.00000E+00   0.00000E+00   1.00000E+00   1.00000E+00   1.00000E+00   1.00000E+00   1.00000E+00   0.00000E+00   0.00000E+00   0.00000E+00   1.00000E+00   1.00000E+00   1.00000E+00   1.00000E+00   1.00000E+00   0.00000E+00   0.00000E+00   0.00000E+00
    40     41     42   5.00000E-01   3.54411E+01   0.00000E+00   4.75000E+00   0.00000E+00   7.00000E-02   4.75000E+00   0.00000E+00   7.00000E-02   0.00000E+00   0.00000E+00             F             F   0.00000E+00   0.00000E+00   0.00000E+00   1.00000E+00   1.00000E+00   1.00000E+00   1.00000E+00   1.00000E+00   0.00000E+00   0.00000E+00   0.00000E+00   1.00000E+00   1.00000E+00   1.00000E+00   1.00000E+00   1.00000E+00   0.00000E+00   0.00000E+00   0.00000E+00
    41     42     43   5.00000E-01   3.54411E+01   0.00000E+00   4.75000E+00   0.00000E+00   7.00000E-02   4.75000E+00   0.00000E+00   7.00000E-02   0.00000E+00   0.00000E+00             F             F   0.00000E+00   0.00000E+00   0.00000E+00   1.00000E+00   1.00000E+00   1.00000E+00   1.00000E+00   1.00000E+00   0.00000E+00   0.00000E+00   0.00000E+00   1.00000E+00   1.00000E+00   1.00000E+00   1.00000E+00   1.00000E+00   0.00000E+00   0.00000E+00   0.00000E+00
    42     43     44   5.00000E-01   3.54411E+01   0.00000E+00   4.75000E+00   0.00000E+00   7.00000E-02   4.75000E+00   0.00000E+00   7.00000E-02   0.00000E+00   0.00000E+00             F             F   0.00000E+00   0.00000E+00   0.00000E+00   1.00000E+00   1.00000E+00   1.00000E+00   1.00000E+00   1.00000E+00   0.00000E+00   0.00000E+00   0.00000E+00   1.00000E+00   1.00000E+00   1.00000E+00   1.00000E+00   1.00000E+00   0.00000E+00   0.00000E+00   0.00000E+00
    43     44     45   5.00000E-01   3.54411E+01   0.00000E+00   4.75000E+00   0.00000E+00   7.00000E-02   4.75000E+00   0.00000E+00   7.00000E-02   0.00000E+00   0.00000E+00             F             F   0.00000E+00   0.00000E+00   0.00000E+00   1.00000E+00   1.00000E+00   1.00000E+00   1.00000E+00   1.00000E+00   0.00000E+00   0.00000E+00   0.00000E+00   1.00000E+00   1.00000E+00   1.00000E+00   1.00000E+00   1.00000E+00   0.00000E+00   0.00000E+00   0.00000E+00
    44     45     46   5.00000E-01   3.54411E+01   0.00000E+00   4.75000E+00   0.00000E+00   7.00000E-02   4.75000E+00   0.00000E+00   7.00000E-02   0.00000E+00   0.00000E+00             F             F   0.00000E+00   0.00000E+00   0.00000E+00   1.00000E+00   1.00000E+00   1.00000E+00   1.00000E+00   1.00000E+00   0.00000E+00   0.00000E+00   0.00000E+00   1.00000E+00   1.00000E+00   1.00000E+00   1.00000E+00   1.00000E+00   0.00000E+00   0.00000E+00   0.00000E+00
    45     46     47   5.00000E-01   3.54411E+01   0.00000E+00   4.75000E+00   0.00000E+00   7.00000E-02   4.75000E+00   0.00000E+00   7.00000E-02   0.00000E+00   0.00000E+00             F             F   0.00000E+00   0.00000E+00   0.00000E+00   1.00000E+00   1.00000E+00   1.00000E+00   1.00000E+00   1.00000E+00   0.00000E+00   0.00000E+00   0.00000E+00   1.00000E+00   1.00000E+00   1.00000E+00   1.00000E+00   1.00000E+00   0.00000E+00   0.00000E+00   0.00000E+00
    46     47     48   5.00000E-01   3.54411E+01   0.00000E+00   4.75000E+00   0.00000E+00   7.00000E-02   4.75000E+00   0.00000E+00   7.00000E-02   0.00000E+00   0.00000E+00             F             F   0.00000E+00   0.00000E+00   0.00000E+00   1.00000E+00   1.00000E+00   1.00000E+00   1.00000E+00   1.00000E+00   0.00000E+00   0.00000E+00   0.00000E+00   1.00000E+00   1.00000E+00   1.00000E+00   1.00000E+00   1.00000E+00   0.00000E+00   0.00000E+00   0.00000E+00
    47     48     49   5.00000E-01   3.54411E+01   0.00000E+00   4.75000E+00   0.00000E+00   7.00000E-02   4.75000E+00   0.00000E+00   7.00000E-02   0.00000E+00   0.00000E+00             F             F   0.00000E+00   0.00000E+00   0.00000E+00   1.00000E+00   1.00000E+00   1.00000E+00   1.00000E+00   1.00000E+00   0.00000E+00   0.00000E+00   0.00000E+00   1.00000E+00   1.00000E+00   1.00000E+00   1.00000E+00   1.00000E+00   0.00000E+00   0.00000E+00   0.00000E+00
    48     49     50   5.00000E-01   3.54411E+01   0.00000E+00   4.75000E+00   0.00000E+00   7.00000E-02   4.75000E+00   0.00000E+00   7.00000E-02   0.00000E+00   0.00000E+00             F             F   0.00000E+00   0.00000E+00   0.00000E+00   1.00000E+00   1.00000E+00   1.00000E+00   1.00000E+00   1.00000E+00   0.00000E+00   0.00000E+00   0.00000E+00   1.00000E+00   1.00000E+00   1.00000E+00   1.00000E+00   1.00000E+00   0.00000E+00   0.00000E+00   0.00000E+00
    49     50     51   5.00000E-01   3.54411E+01   0.00000E+00   4.75000E+00   0.00000E+00   7.00000E-02   4.75000E+00   0.00000E+00   7.00000E-02   0.00000E+00   0.00000E+00             F             F   0.00000E+00   0.00000E+00   0.00000E+00   1.00000E+00   1.00000E+00   1.00000E+00   1.00000E+00   1.00000E+00   0.00000E+00   0.00000E+00   0.00000E+00   1.00000E+00   1.00000E+00   1.00000E+00   1.00000E+00   1.00000E+00   0.00000E+00   0.00000E+00   0.00000E+00
    50     51     52   5.00000E-01   3.54411E+01   0.00000E+00   4.75000E+00   0.00000E+00   7.00000E-02   4.75000E+00   0.00000E+00   7.00000E-02   0.00000E+00   0.00000E+00             F             F   0.00000E+00   0.00000E+00   0.00000E+00   1.00000E+00   1.00000E+00   1.00000E+00   1.00000E+00   1.00000E+00   0.00000E+00   0.00000E+00   0.00000E+00   1.00000E+00   1.00000E+00   1.00000E+00   1.00000E+00   1.00000E+00   0.00000E+00   0.00000E+00   0.00000E+00
    51     52     53   5.00000E-01   3.54411E+01   0.00000E+00   4.75000E+00   0.00000E+00   7.00000E-02   4.75000E+00   0.00000E+00   7.00000E-02   0.00000E+00   0.00000E+00             F             F   0.00000E+00   0.00000E+00   0.00000E+00   1.00000E+00   1.00000E+00   1.00000E+00   1.00000E+00   1.00000E+00   0.00000E+00   0.00000E+00   0.00000E+00   1.00000E+00   1.00000E+00   1.00000E+00   1.00000E+00   1.00000E+00   0.00000E+00   0.00000E+00   0.00000E+00
    52     53     54   5.00000E-01   3.54411E+01   0.00000E+00   4.75000E+00   0.00000E+00   7.00000E-02   4.75000E+00   0.00000E+00   7.00000E-02   0.00000E+00   0.00000E+00             F             F   0.00000E+00   0.00000E+00   0.00000E+00   1.00000E+00   1.00000E+00   1.00000E+00   1.00000E+00   1.00000E+00   0.00000E+00   0.00000E+00   0.00000E+00   1.00000E+00   1.00000E+00   1.00000E+00   1.00000E+00   1.00000E+00   0.00000E+00   0.00000E+00   0.00000E+00
    53     54     55   5.00000E-01   3.54411E+01   0.00000E+00   4.75000E+00   0.00000E+00   7.00000E-02   4.75000E+00   0.00000E+00   7.00000E-02   0.00000E+00   0.00000E+00             F             F   0.00000E+00   0.00000E+00   0.00000E+00   1.00000E+00   1.00000E+00   1.00000E+00   1.00000E+00   1.00000E+00   0.00000E+00   0.00000E+00   0.00000E+00   1.00000E+00   1.00000E+00   1.00000E+00   1.00000E+00   1.00000E+00   0.00000E+00   0.00000E+00   0.00000E+00
    54     55     56   5.00000E-01   3.54411E+01   0.00000E+00   4.75000E+00   0.00000E+00   7.00000E-02   4.75000E+00   0.00000E+00   7.00000E-02   0.00000E+00   0.00000E+00             F             F   0.00000E+00   0.00000E+00   0.00000E+00   1.00000E+00   1.00000E+00   1.00000E+00   1.00000E+00   1.00000E+00   0.00000E+00   0.00000E+00   0.00000E+00   1.00000E+00   1.00000E+00   1.00000E+00   1.00000E+00   1.00000E+00   0.00000E+00   0.00000E+00   0.00000E+00
    55     56     57   5.00000E-01   3.54411E+01   0.00000E+00   4.75000E+00   0.00000E+00   7.00000E-02   4.75000E+00   0.00000E+00   7.00000E-02   0.00000E+00   0.00000E+00             F             F   0.00000E+00   0.00000E+00   0.00000E+00   1.00000E+00   1.00000E+00   1.00000E+00   1.00000E+00   1.00000E+00   0.00000E+00   0.00000E+00   0.00000E+00   1.00000E+00   1.00000E+00   1.00000E+00   1.00000E+00   1.00000E+00   0.00000E+00   0.00000E+00   0.00000E+00
    56     57     58   5.00000E-01   3.54411E+01   0.00000E+00   4.75000E+00   0.00000E+00   7.00000E-02   4.75000E+00   0.00000E+00   7.00000E-02   0.00000E+00   0.00000E+00             F             F   0.00000E+00   0.00000E+00   0.00000E+00   1.00000E+00   1.00000E+00   1.00000E+00   1.00000E+00   1.00000E+00   0.00000E+00   0.00000E+00   0.00000E+00   1.00000E+00   1.00000E+00   1.00000E+00   1.00000E+00   1.00000E+00   0.00000E+00   0.00000E+00   0.00000E+00
    57     58     59   5.00000E-01   3.54411E+01   0.00000E+00   4.75000E+00   0.00000E+00   7.00000E-02   4.75000E+00   0.00000E+00   7.00000E-02   0.00000E+00   0.00000E+00             F             F   0.00000E+00   0.00000E+00   0.00000E+00   1.00000E+00   1.00000E+00   1.00000E+00   1.00000E+00   1.00000E+00   0.00000E+00   0.00000E+00   0.00000E+00   1.00000E+00   1.00000E+00   1.00000E+00   1.00000E+00   1.00000E+00   0.00000E+00   0.00000E+00   0.00000E+00
    58     59     60   5.00000E-01   3.54411E+01   0.00000E+00   4.75000E+00   0.00000E+00   7.00000E-02   4.75000E+00   0.00000E+00   7.00000E-02   0.00000E+00   0.00000E+00             F             F   0.00000E+00   0.00000E+00   0.00000E+00   1.00000E+00   1.00000E+00   1.00000E+00   1.00000E+00   1.00000E+00   0.00000E+00   0.00000E+00   0.00000E+00   1.00000E+00   1.00000E+00   1.00000E+00   1.00000E+00   1.00000E+00   0.00000E+00   0.00000E+00   0.00000E+00
    59     60     61   5.00000E-01   3.54411E+01   0.00000E+00   4.75000E+00   0.00000E+00   7.00000E-02   4.75000E+00   0.00000E+00   7.00000E-02   0.00000E+00   0.00000E+00             F             F   0.00000E+00   0.00000E+00   0.00000E+00   1.00000E+00   1.00000E+00   1.00000E+00   1.00000E+00   1.00000E+00   0.00000E+00   0.00000E+00   0.00000E+00   1.00000E+00   1.00000E+00   1.00000E+00   1.00000E+00   1.00000E+00   0.00000E+00   0.00000E+00   0.00000E+00
    60     61     62   5.00000E-01   3.54411E+01   0.00000E+00   4.75000E+00   0.00000E+00   7.00000E-02   4.75000E+00   0.00000E+00   7.00000E-02   0.00000E+00   0.00000E+00             F             F   0.00000E+00   0.00000E+00   0.00000E+00   1.00000E+00   1.00000E+00   1.00000E+00   1.00000E+00   1.00000E+00   0.00000E+00   0.00000E+00   0.00000E+00   1.00000E+00   1.00000E+00   1.00000E+00   1.00000E+00   1.00000E+00   0.00000E+00   0.00000E+00   0.00000E+00
    61     62     63   5.00000E-01   3.54411E+01   0.00000E+00   4.75000E+00   0.00000E+00   7.00000E-02   4.75000E+00   0.00000E+00   7.00000E-02   0.00000E+00   0.00000E+00             F             F   0.00000E+00   0.00000E+00   0.00000E+00   1.00000E+00   1.00000E+00   1.00000E+00   1.00000E+00   1.00000E+00   0.00000E+00   0.00000E+00   0.00000E+00   1.00000E+00   1.00000E+00   1.00000E+00   1.00000E+00   1.00000E+00   0.00000E+00   0.00000E+00   0.00000E+00
    62     63      4   5.00000E-01   3.54411E+01   0.00000E+00   4.75000E+00   0.00000E+00   7.00000E-02   4.75000E+00   0.00000E+00   7.00000E-02   0.00000E+00   0.00000E+00             F             F   0.00000E+00   0.00000E+00   0.00000E+00   1.00000E+00   1.00000E+00   1.00000E+00   1.00000E+00   1.00000E+00   0.00000E+00   0.00000E+00   0.00000E+00   1.00000E+00   1.00000E+00   1.00000E+00   1.00000E+00   1.00000E+00   0.00000E+00   0.00000E+00   0.00000E+00
    63     64     65   5.00000E-01   3.54411E+01   0.00000E+00   4.75000E+00   0.00000E+00   7.00000E-02   4.75000E+00   0.00000E+00   7.00000E-02   0.00000E+00   0.00000E+00             F             F   0.00000E+00   0.00000E+00   0.00000E+00   1.00000E+00   1.00000E+00   1.00000E+00   1.00000E+00   1.00000E+00   0.00000E+00   0.00000E+00   0.00000E+00   1.00000E+00   1.00000E+00   1.00000E+00   1.00000E+00   1.00000E+00   0.00000E+00   0.00000E+00   0.00000E+00
    64     65     66   5.00000E-01   3.54411E+01   0.00000E+00   4.75000E+00   0.00000E+00   7.00000E-02   4.75000E+00   0.00000E+00   7.00000E-02   0.00000E+00   0.00000E+00             F             F   0.00000E+00   0.00000E+00   0.00000E+00   1.00000E+00   1.00000E+00   1.00000E+00   1.00000E+00   1.00000E+00   0.00000E+00   0.00000E+00   0.00000E+00   1.00000E+00   1.00000E+00   1.00000E+00   1.00000E+00   1.00000E+00   0.00000E+00   0.00000E+00   0.00000E+00
    65     66     67   5.00000E-01   3.54411E+01   0.00000E+00   4.75000E+00   0.00000E+00   7.00000E-02   4.75000E+00   0.00000E+00   7.00000E-02   0.00000E+00   0.00000E+00             F             F   0.00000E+00   0.00000E+00   0.00000E+00   1.00000E+00   1.00000E+00   1.00000E+00   1.00000E+00   1.00000E+00   0.00000E+00   0.00000E+00   0.00000E+00   1.00000E+00   1.00000E+00   1.00000E+00   1.00000E+00   1.00000E+00   0.00000E+00   0.00000E+00   0.00000E+00
    66     67     68   5.00000E-01   3.54411E+01   0.00000E+00   4.75000E+00   0.00000E+00   7.00000E-02   4.75000E+00   0.00000E+00   7.00000E-02   0.00000E+00   0.00000E+00             F             F   0.00000E+00   0.00000E+00   0.00000E+00   1.00000E+00   1.00000E+00   1.00000E+00   1.00000E+00   1.00000E+00   0.00000E+00   0.00000E+00   0.00000E+00   1.00000E+00   1.00000E+00   1.00000E+00   1.00000E+00   1.00000E+00   0.00000E+00   0.00000E+00   0.00000E+00
    67     68     69   5.00000E-01   3.54411E+01   0.00000E+00   4.75000E+00   0.00000E+00   7.00000E-02   4.75000E+00   0.00000E+00   7.00000E-02   0.00000E+00   0.00000E+00             F             F   0.00000E+00   0.00000E+00   0.00000E+00   1.00000E+00   1.00000E+00   1.00000E+00   1.00000E+00   1.00000E+00   0.00000E+00   0.00000E+00   0.00000E+00   1.00000E+00   1.00000E+00   1.00000E+00   1.00000E+00   1.00000E+00   0.00000E+00   0.00000E+00   0.00000E+00
    68     69     70   5.00000E-01   3.54411E+01   0.00000E+00   4.75000E+00   0.00000E+00   7.00000E-02   4.75000E+00   0.00000E+00   7.00000E-02   0.00000E+00   0.00000E+00             F             F   0.00000E+00   0.00000E+00   0.00000E+00   1.00000E+00   1.00000E+00   1.00000E+00   1.00000E+00   1.00000E+00   0.00000E+00   0.00000E+00   0.00000E+00   1.00000E+00   1.00000E+00   1.00000E+00   1.00000E+00   1.00000E+00   0.00000E+00   0.00000E+00   0.00000E+00
    69     70     71   5.00000E-01   3.54411E+01   0.00000E+00   4.75000E+00   0.00000E+00   7.00000E-02   4.75000E+00   0.00000E+00   7.00000E-02   0.00000E+00   0.00000E+00             F             F   0.00000E+00   0.00000E+00   0.00000E+00   1.00000E+00   1.00000E+00   1.00000E+00   1.00000E+00   1.00000E+00   0.00000E+00   0.00000E+00   0.00000E+00   1.00000E+00   1.00000E+00   1.00000E+00   1.00000E+00   1.00000E+00   0.00000E+00   0.00000E+00   0.00000E+00
    70     71     72   5.00000E-01   3.54411E+01   0.00000E+00   4.75000E+00   0.00000E+00   7.00000E-02   4.75000E+00   0.00000E+00   7.00000E-02   0.00000E+00   0.00000E+00             F             F   0.00000E+00   0.00000E+00   0.00000E+00   1.00000E+00   1.00000E+00   1.00000E+00   1.00000E+00   1.00000E+00   0.00000E+00   0.00000E+00   0.00000E+00   1.00000E+00   1.00000E+00   1.00000E+00   1.00000E+00   1.00000E+00   0.00000E+00   0.00000E+00   0.00000E+00
    71     72     73   5.00000E-01   3.54411E+01   0.00000E+00   4.75000E+00   0.00000E+00   7.00000E-02   4.75000E+00   0.00000E+00   7.00000E-02   0.00000E+00   0.00000E+00             F             F   0.00000E+00   0.00000E+00   0.00000E+00   1.00000E+00   1.00000E+00   1.00000E+00   1.00000E+00   1.00000E+00   0.00000E+00   0.00000E+00   0.00000E+00   1.00000E+00   1.00000E+00   1.00000E+00   1.00000E+00   1.00000E+00   0.00000E+00   0.00000E+00   0.00000E+00
    72     73     74   5.00000E-01   3.54411E+01   0.00000E+00   4.75000E+00   0.00000E+00   7.00000E-02   4.75000E+00   0.00000E+00   7.00000E-02   0.00000E+00   0.00000E+00             F             F   0.00000E+00   0.00000E+00   0.00000E+00   1.00000E+00   1.00000E+00   1.00000E+00   1.00000E+00   1.00000E+00   0.00000E+00   0.00000E+00   0.00000E+00   1.00000E+00   1.00000E+00   1.00000E+00   1.00000E+00   1.00000E+00   0.00000E+00   0.00000E+00   0.00000E+00
    73     74     75   5.00000E-01   3.54411E+01   0.00000E+00   4.75000E+00   0.00000E+00   7.00000E-02   4.75000E+00   0.00000E+00   7.00000E-02   0.00000E+00   0.00000E+00             F             F   0.00000E+00   0.00000E+00   0.00000E+00   1.00000E+00   1.00000E+00   1.00000E+00   1.00000E+00   1.00000E+00   0.00000E+00   0.00000E+00   0.00000E+00   1.00000E+00   1.00000E+00   1.00000E+00   1.00000E+00   1.00000E+00   0.00000E+00   0.00000E+00   0.00000E+00
    74     75     76   5.00000E-01   3.54411E+01   0.00000E+00   4.75000E+00   0.00000E+00   7.00000E-02   4.75000E+00   0.00000E+00   7.00000E-02   0.00000E+00   0.00000E+00             F             F   0.00000E+00   0.00000E+00   0.00000E+00   1.00000E+00   1.00000E+00   1.00000E+00   1.00000E+00   1.00000E+00   0.00000E+00   0.00000E+00   0.00000E+00   1.00000E+00   1.00000E+00   1.00000E+00   1.00000E+00   1.00000E+00   0.00000E+00   0.00000E+00   0.00000E+00
    75     76     77   5.00000E-01   3.54411E+01   0.00000E+00   4.75000E+00   0.00000E+00   7.00000E-02   4.75000E+00   0.00000E+00   7.00000E-02   0.00000E+00   0.00000E+00             F             F   0.00000E+00   0.00000E+00   0.00000E+00   1.00000E+00   1.00000E+00   1.00000E+00   1.00000E+00   1.00000E+00   0.00000E+00   0.00000E+00   0.00000E+00   1.00000E+00   1.00000E+00   1.00000E+00   1.00000E+00   1.00000E+00   0.00000E+00   0.00000E+00   0.00000E+00
    76     77     78   5.00000E-01   3.54411E+01   0.00000E+00   4.75000E+00   0.00000E+00   7.00000E-02   4.75000E+00   0.00000E+00   7.00000E-02   0.00000E+00   0.00000E+00             F             F   0.00000E+00   0.00000E+00   0.00000E+00   1.00000E+00   1.00000E+00   1.00000E+00   1.00000E+00   1.00000E+00   0.00000E+00   0.00000E+00   0.00000E+00   1.00000E+00   1.00000E+00   1.00000E+00   1.00000E+00   1.00000E+00   0.00000E+00   0.00000E+00   0.00000E+00
    77     78     79   5.00000E-01   3.54411E+01   0.00000E+00   4.75000E+00   0.00000E+00   7.00000E-02   4.75000E+00   0.00000E+00   7.00000E-02   0.00000E+00   0.00000E+00             F             F   0.00000E+00   0.00000E+00   0.00000E+00   1.00000E+00   1.00000E+00   1.00000E+00   1.00000E+00   1.00000E+00   0.00000E+00   0.00000E+00   0.00000E+00   1.00000E+00   1.00000E+00   1.00000E+00   1.00000E+00   1.00000E+00   0.00000E+00   0.00000E+00   0.00000E+00
    78     79     80   5.00000E-01   3.54411E+01   0.00000E+00   4.75000E+00   0.00000E+00   7.00000E-02   4.75000E+00   0.00000E+00   7.00000E-02   0.00000E+00   0.00000E+00             F             F   0.00000E+00   0.00000E+00   0.00000E+00   1.00000E+00   1.00000E+00   1.00000E+00   1.00000E+00   1.00000E+00   0.00000E+00   0.00000E+00   0.00000E+00   1.00000E+00   1.00000E+00   1.00000E+00   1.00000E+00   1.00000E+00   0.00000E+00   0.00000E+00   0.00000E+00
    79     80     81   5.00000E-01   3.54411E+01   0.00000E+00   4.75000E+00   0.00000E+00   7.00000E-02   4.75000E+00   0.00000E+00   7.00000E-02   0.00000E+00   0.00000E+00             F             F   0.00000E+00   0.00000E+00   0.00000E+00   1.00000E+00   1.00000E+00   1.00000E+00   1.00000E+00   1.00000E+00   0.00000E+00   0.00000E+00   0.00000E+00   1.00000E+00   1.00000E+00   1.00000E+00   1.00000E+00   1.00000E+00   0.00000E+00   0.00000E+00   0.00000E+00
    80     81     82   5.00000E-01   3.54411E+01   0.00000E+00   4.75000E+00   0.00000E+00   7.00000E-02   4.75000E+00   0.00000E+00   7.00000E-02   0.00000E+00   0.00000E+00             F             F   0.00000E+00   0.00000E+00   0.00000E+00   1.00000E+00   1.00000E+00   1.00000E+00   1.00000E+00   1.00000E+00   0.00000E+00   0.00000E+00   0.00000E+00   1.00000E+00   1.00000E+00   1.00000E+00   1.00000E+00   1.00000E+00   0.00000E+00   0.00000E+00   0.00000E+00
    81     82     83   5.00000E-01   3.54411E+01   0.00000E+00   4.75000E+00   0.00000E+00   7.00000E-02   4.75000E+00   0.00000E+00   7.00000E-02   0.00000E+00   0.00000E+00             F             F   0.00000E+00   0.00000E+00   0.00000E+00   1.00000E+00   1.00000E+00   1.00000E+00   1.00000E+00   1.00000E+00   0.00000E+00   0.00000E+00   0.00000E+00   1.00000E+00   1.00000E+00   1.00000E+00   1.00000E+00   1.00000E+00   0.00000E+00   0.00000E+00   0.00000E+00
    82     83     84   5.00000E-01   3.54411E+01   0.00000E+00   4.75000E+00   0.00000E+00   7.00000E-02   4.75000E+00   0.00000E+00   7.00000E-02   0.00000E+00   0.00000E+00             F             F   0.00000E+00   0.00000E+00   0.00000E+00   1.00000E+00   1.00000E+00   1.00000E+00   1.00000E+00   1.00000E+00   0.00000E+00   0.00000E+00   0.00000E+00   1.00000E+00   1.00000E+00   1.00000E+00   1.00000E+00   1.00000E+00   0.00000E+00   0.00000E+00   0.00000E+00
    83     84     85   5.00000E-01   3.54411E+01   0.00000E+00   4.75000E+00   0.00000E+00   7.00000E-02   4.75000E+00   0.00000E+00   7.00000E-02   0.00000E+00   0.00000E+00             F             F   0.00000E+00   0.00000E+00   0.00000E+00   1.00000E+00   1.00000E+00   1.00000E+00   1.00000E+00   1.00000E+00   0.00000E+00   0.00000E+00   0.00000E+00   1.00000E+00   1.00000E+00   1.00000E+00   1.00000E+00   1.00000E+00   0.00000E+00   0.00000E+00   0.00000E+00
    84     85     86   5.00000E-01   3.54411E+01   0.00000E+00   4.75000E+00   0.00000E+00   7.00000E-02   4.75000E+00   0.00000E+00   7.00000E-02   0.00000E+00   0.00000E+00             F             F   0.00000E+00   0.00000E+00   0.00000E+00   1.00000E+00   1.00000E+00   1.00000E+00   1.00000E+00   1.00000E+00   0.00000E+00   0.00000E+00   0.00000E+00   1.00000E+00   1.00000E+00   1.00000E+00   1.00000E+00   1.00000E+00   0.00000E+00   0.00000E+00   0.00000E+00
    85     86     87   5.00000E-01   3.54411E+01   0.00000E+00   4.75000E+00   0.00000E+00   7.00000E-02   4.75000E+00   0.00000E+00   7.00000E-02   0.00000E+00   0.00000E+00             F             F   0.00000E+00   0.00000E+00   0.00000E+00   1.00000E+00   1.00000E+00   1.00000E+00   1.00000E+00   1.00000E+00   0.00000E+00   0.00000E+00   0.00000E+00   1.00000E+00   1.00000E+00   1.00000E+00   1.00000E+00   1.00000E+00   0.00000E+00   0.00000E+00   0.00000E+00
    86     87     88   5.00000E-01   3.54411E+01   0.00000E+00   4.75000E+00   0.00000E+00   7.00000E-02   4.75000E+00   0.00000E+00   7.00000E-02   0.00000E+00   0.00000E+00             F             F   0.00000E+00   0.00000E+00   0.00000E+00   1.00000E+00   1.00000E+00   1.00000E+00   1.00000E+00   1.00000E+00   0.00000E+00   0.00000E+00   0.00000E+00   1.00000E+00   1.00000E+00   1.00000E+00   1.00000E+00   1.00000E+00   0.00000E+00   0.00000E+00   0.00000E+00
    87     88     89   5.00000E-01   3.54411E+01   0.00000E+00   4.75000E+00   0.00000E+00   7.00000E-02   4.75000E+00   0.00000E+00   7.00000E-02   0.00000E+00   0.00000E+00             F             F   0.00000E+00   0.00000E+00   0.00000E+00   1.00000E+00   1.00000E+00   1.00000E+00   1.00000E+00   1.00000E+00   0.00000E+00   0.00000E+00   0.00000E+00   1.00000E+00   1.00000E+00   1.00000E+00   1.00000E+00   1.00000E+00   0.00000E+00   0.00000E+00   0.00000E+00
    88     89     90   5.00000E-01   3.54411E+01   0.00000E+00   4.75000E+00   0.00000E+00   7.00000E-02   4.75000E+00   0.00000E+00   7.00000E-02   0.00000E+00   0.00000E+00             F             F   0.00000E+00   0.00000E+00   0.00000E+00   1.00000E+00   1.00000E+00   1.00000E+00   1.00000E+00   1.00000E+00   0.00000E+00   0.00000E+00   0.00000E+00   1.00000E+00   1.00000E+00   1.00000E+00   1.00000E+00   1.00000E+00   0.00000E+00   0.00000E+00   0.00000E+00
    89     90     91   5.00000E-01   3.54411E+01   0.00000E+00   4.75000E+00   0.00000E+00   7.00000E-02   4.75000E+00   0.00000E+00   7.00000E-02   0.00000E+00   0.00000E+00             F             F   0.00000E+00   0.00000E+00   0.00000E+00   1.00000E+00   1.00000E+00   1.00000E+00   1.00000E+00   1.00000E+00   0.00000E+00   0.00000E+00   0.00000E+00   1.00000E+00   1.00000E+00   1.00000E+00   1.00000E+00   1.00000E+00   0.00000E+00   0.00000E+00   0.00000E+00
    90     91     92   5.00000E-01   3.54411E+01   0.00000E+00   4.75000E+00   0.00000E+00   7.00000E-02   4.75000E+00   0.00000E+00   7.00000E-02   0.00000E+00   0.00000E+00             F             F   0.00000E+00   0.00000E+00   0.00000E+00   1.00000E+00   1.00000E+00   1.00000E+00   1.00000E+00   1.00000E+00   0.00000E+00   0.00000E+00   0.00000E+00   1.00000E+00   1.00000E+00   1.00000E+00   1.00000E+00   1.00000E+00   0.00000E+00   0.00000E+00   0.00000E+00
    91     92     93   5.00000E-01   3.54411E+01   0.00000E+00   4.75000E+00   0.00000E+00   7.00000E-02   4.75000E+00   0.00000E+00   7.00000E-02   0.00000E+00   0.00000E+00             F             F   0.00000E+00   0.00000E+00   0.00000E+00   1.00000E+00   1.00000E+00   1.00000E+00   1.00000E+00   1.00000E+00   0.00000E+00   0.00000E+00   0.00000E+00   1.00000E+00   1.00000E+00   1.00000E+00   1.00000E+00   1.00000E+00   0.00000E+00   0.00000E+00   0.00000E+00
    92     93     94   5.00000E-01   3.54411E+01   0.00000E+00   4.75000E+00   0.00000E+00   7.00000E-02   4.75000E+00   0.00000E+00   7.00000E-02   0.00000E+00   0.00000E+00             F             F   0.00000E+00   0.00000E+00   0.00000E+00   1.00000E+00   1.00000E+00   1.00000E+00   1.00000E+00   1.00000E+00   0.00000E+00   0.00000E+00   0.00000E+00   1.00000E+00   1.00000E+00   1.00000E+00   1.00000E+00   1.00000E+00   0.00000E+00   0.00000E+00   0.00000E+00
    93     94     95   5.00000E-01   3.54411E+01   0.00000E+00   4.75000E+00   0.00000E+00   7.00000E-02   4.75000E+00   0.00000E+00   7.00000E-02   0.00000E+00   0.00000E+00             F             F   0.00000E+00   0.00000E+00   0.00000E+00   1.00000E+00   1.00000E+00   1.00000E+00   1.00000E+00   1.00000E+00   0.00000E+00   0.00000E+00   0.00000E+00   1.00000E+00   1.00000E+00   1.00000E+00   1.00000E+00   1.00000E+00   0.00000E+00   0.00000E+00   0.00000E+00
    94     95     96   5.00000E-01   3.54411E+01   0.00000E+00   4.75000E+00   0.00000E+00   7.00000E-02   4.75000E+00   0.00000E+00   7.00000E-02   0.00000E+00   0.00000E+00             F             F   0.00000E+00   0.00000E+00   0.00000E+00   1.00000E+00   1.00000E+00   1.00000E+00   1.00000E+00   1.00000E+00   0.00000E+00   0.00000E+00   0.00000E+00   1.00000E+00   1.00000E+00   1.00000E+00   1.00000E+00   1.00000E+00   0.00000E+00   0.00000E+00   0.00000E+00
    95     96     97   5.00000E-01   3.54411E+01   0.00000E+00   4.75000E+00   0.00000E+00   7.00000E-02   4.75000E+00   0.00000E+00   7.00000E-02   0.00000E+00   0.00000E+00             F             F   0.00000E+00   0.00000E+00   0.00000E+00   1.00000E+00   1.00000E+00   1.00000E+00   1.00000E+00   1.00000E+00   0.00000E+00   0.00000E+00   0.00000E+00   1.00000E+00   1.00000E+00   1.00000E+00   1.00000E+00   1.00000E+00   0.00000E+00   0.00000E+00   0.00000E+00
    96     97     98   5.00000E-01   3.54411E+01   0.00000E+00   4.75000E+00   0.00000E+00   7.00000E-02   4.75000E+00   0.00000E+00   7.00000E-02   0.00000E+00   0.00000E+00             F             F   0.00000E+00   0.00000E+00   0.00000E+00   1.00000E+00   1.00000E+00   1.00000E+00   1.00000E+00   1.00000E+00   0.00000E+00   0.00000E+00   0.00000E+00   1.00000E+00   1.00000E+00   1.00000E+00   1.00000E+00   1.00000E+00   0.00000E+00   0.00000E+00   0.00000E+00
    97     98     99   5.00000E-01   3.54411E+01   0.00000E+00   4.75000E+00   0.00000E+00   7.00000E-02   4.75000E+00   0.00000E+00   7.00000E-02   0.00000E+00   0.00000E+00             F             F   0.00000E+00   0.00000E+00   0.00000E+00   1.00000E+00   1.00000E+00   1.00000E+00   1.00000E+00   1.00000E+00   0.00000E+00   0.00000E+00   0.00000E+00   1.00000E+00   1.00000E+00   1.00000E+00   1.00000E+00   1.00000E+00   0.00000E+00   0.00000E+00   0.00000E+00
    98     99    100   5.00000E-01   3.54411E+01   0.00000E+00   4.75000E+00   0.00000E+00   7.00000E-02   4.75000E+00   0.00000E+00   7.00000E-02   0.00000E+00   0.00000E+00             F             F   0.00000E+00   0.00000E+00   0.00000E+00   1.00000E+00   1.00000E+00   1.00000E+00   1.00000E+00   1.00000E+00   0.00000E+00   0.00000E+00   0.00000E+00   1.00000E+00   1.00000E+00   1.00000E+00   1.00000E+00   1.00000E+00   0.00000E+00   0.00000E+00   0.00000E+00
    99    100    101   5.00000E-01   3.54411E+01   0.00000E+00   4.75000E+00   0.00000E+00   7.00000E-02   4.75000E+00   0.00000E+00   7.00000E-02   0.00000E+00   0.00000E+00             F             F   0.00000E+00   0.00000E+00   0.00000E+00   1.00000E+00   1.00000E+00   1.00000E+00   1.00000E+00   1.00000E+00   0.00000E+00   0.00000E+00   0.00000E+00   1.00000E+00   1.00000E+00   1.00000E+00   1.00000E+00   1.00000E+00   0.00000E+00   0.00000E+00   0.00000E+00
   100    101    102   5.00000E-01   3.54411E+01   0.00000E+00   4.75000E+00   0.00000E+00   7.00000E-02   4.75000E+00   0.00000E+00   7.00000E-02   0.00000E+00   0.00000E+00             F             F   0.00000E+00   0.00000E+00   0.00000E+00   1.00000E+00   1.00000E+00   1.00000E+00   1.00000E+00   1.00000E+00   0.00000E+00   0.00000E+00   0.00000E+00   1.00000E+00   1.00000E+00   1.00000E+00   1.00000E+00   1.00000E+00   0.00000E+00   0.00000E+00   0.00000E+00
   101    102      2   5.00000E-01   3.54411E+01   0.00000E+00   4.75000E+00   0.00000E+00   7.00000E-02   4.75000E+00   0.00000E+00   7.00000E-02   0.00000E+00   0.00000E+00             F             F   0.00000E+00   0.00000E+00   0.00000E+00   1.00000E+00   1.00000E+00   1.00000E+00   1.00000E+00   1.00000E+00   0.00000E+00   0.00000E+00   0.00000E+00   1.00000E+00   1.00000E+00   1.00000E+00   1.00000E+00   1.00000E+00   0.00000E+00   0.00000E+00   1.00000E+00



Requested Member Outputs


   Label         Xi          Yi          Zi      InpMbrIndx   StartXi     StartYi     StartZi      EndXi       EndYi       EndZi        Loc    
    (-)          (m)         (m)         (m)        (-)         (m)         (m)         (m)         (m)         (m)         (m)         (-)    



 Requested Joint Outputs


   Label         Xi          Yi          Zi      InpJointID
    (-)          (m)         (m)         (m)        (-)    

This summary file was closed on 05-Aug-2020 at 14:42:55.

