
This summary information was generated by ElastoDyn on 05-Aug-2020 at 14:42:55.


Turbine features:

            Upwind, three-bladed rotor with rigid hub.
            The model has 20 of 24 DOFs active (enabled) at start-up.
 Enabled    Platform horizontal surge translation DOF 
 Enabled    Platform horizontal sway translation DOF 
 Enabled    Platform vertical heave translation DOF 
 Enabled    Platform roll tilt rotation DOF 
 Enabled    Platform pitch tilt rotation DOF 
 Enabled    Platform yaw rotation DOF 
 Enabled    1st tower fore-aft bending mode DOF 
 Enabled    1st tower side-to-side bending mode DOF 
 Enabled    2nd tower fore-aft bending mode DOF 
 Enabled    2nd tower side-to-side bending mode DOF 
 Disabled   Nacelle yaw DOF 
 Disabled   Rotor-furl DOF 
 Enabled    Variable speed generator DOF 
 Disabled   Drivetrain rotational-flexibility DOF 
 Disabled   Tail-furl DOF 
 Enabled    1st flapwise bending-mode DOF of blade 1 
 Enabled    1st edgewise bending-mode DOF of blade 1 
 Enabled    2nd flapwise bending-mode DOF of blade 1 
 Enabled    1st flapwise bending-mode DOF of blade 2 
 Enabled    1st edgewise bending-mode DOF of blade 2 
 Enabled    2nd flapwise bending-mode DOF of blade 2 
 Enabled    1st flapwise bending-mode DOF of blade 3 
 Enabled    1st edgewise bending-mode DOF of blade 3 
 Enabled    2nd flapwise bending-mode DOF of blade 3 


Time steps:

    Structural            (s)        0.01000000


Some calculated parameters:

    Hub-Height            (m)           150.000
    Flexible Tower Length (m)           129.495
    Flexible Blade Length (m)           117.000


Rotor mass properties:

    Rotor Mass            (kg)       384997.696
    Rotor Inertia         (kg-m^2)310619530.351
                                        Blade 1      Blade 2      Blade 3
                                        -------      -------      -------
    Mass                  (kg)        64999.232    64999.232    64999.232
    Second Mass Moment    (kg-m^2) 92568198.394 92568198.394 92568198.394
    First Mass Moment     (kg-m)    1738812.410  1738812.410  1738812.410
    Center of Mass        (m)            26.751       26.751       26.751


Additional mass properties:

    Tower-top Mass        (kg)      1015885.614
    Tower Mass            (kg)       802475.235
    Platform Mass         (kg)       450000.000
    Mass Incl. Platform   (kg)      2268360.849


Interpolated tower properties:

Node  TwFract   HNodes  DHNodes  TMassDen    FAStiff    SSStiff
 (-)      (-)      (m)      (m)    (kg/m)     (Nm^2)     (Nm^2)
   1    0.025    3.237    6.475  9701.837  3.065E+12  3.065E+12
   2    0.075    9.712    6.475  9701.837  3.065E+12  3.065E+12
   3    0.125   16.187    6.475  8941.460  2.817E+12  2.817E+12
   4    0.175   22.662    6.475  8908.299  2.785E+12  2.785E+12
   5    0.225   29.136    6.475  8142.969  2.481E+12  2.481E+12
   6    0.275   35.611    6.475  7942.421  2.303E+12  2.303E+12
   7    0.325   42.086    6.475  7355.288  2.015E+12  2.015E+12
   8    0.375   48.561    6.475  7113.908  1.824E+12  1.824E+12
   9    0.425   55.035    6.475  6543.991  1.561E+12  1.561E+12
  10    0.475   61.510    6.475  6286.560  1.385E+12  1.385E+12
  11    0.525   67.985    6.475  5701.593  1.152E+12  1.152E+12
  12    0.575   74.460    6.475  5429.375  9.956E+11  9.956E+11
  13    0.625   80.934    6.475  4867.070  8.171E+11  8.171E+11
  14    0.675   87.409    6.475  4706.174  7.391E+11  7.391E+11
  15    0.725   93.884    6.475  4054.985  6.059E+11  6.059E+11
  16    0.775  100.359    6.475  4007.471  5.849E+11  5.849E+11
  17    0.825  106.833    6.475  3434.884  4.895E+11  4.895E+11
  18    0.875  113.308    6.475  3389.829  4.705E+11  4.705E+11
  19    0.925  119.783    6.475  3865.588  5.252E+11  5.252E+11
  20    0.975  126.258    6.475  3843.643  5.164E+11  5.164E+11


Interpolated blade 1 properties:

Node  BlFract   RNodes  DRNodes PitchAxis  StrcTwst  BMassDen    FlpStff    EdgStff
 (-)      (-)      (m)      (m)       (-)     (deg)    (kg/m)     (Nm^2)     (Nm^2)
   1    0.017    4.950    3.900     0.493    15.592  2900.376  1.418E+11  1.397E+11
   2    0.050    8.850    3.900     0.464    15.207  2327.765  1.136E+11  1.121E+11
   3    0.083   12.750    3.900     0.433    14.183  1787.597  7.832E+10  8.174E+10
   4    0.117   16.650    3.900     0.403    12.690  1427.600  4.909E+10  5.711E+10
   5    0.150   20.550    3.900     0.376    11.022   982.268  3.237E+10  3.899E+10
   6    0.183   24.450    3.900     0.352     9.413   697.368  2.568E+10  2.820E+10
   7    0.217   28.350    3.900     0.334     8.102   550.623  2.081E+10  2.292E+10
   8    0.250   32.250    3.900     0.323     7.031   486.668  1.774E+10  2.090E+10
   9    0.283   36.150    3.900     0.315     6.006   455.223  1.567E+10  2.003E+10
  10    0.317   40.050    3.900     0.310     5.060   446.040  1.373E+10  1.947E+10
  11    0.350   43.950    3.900     0.306     4.223   438.608  1.182E+10  1.834E+10
  12    0.383   47.850    3.900     0.302     3.529   425.490  1.015E+10  1.670E+10
  13    0.417   51.750    3.900     0.298     2.928   407.973  8.652E+09  1.473E+10
  14    0.450   55.650    3.900     0.294     2.397   384.592  7.220E+09  1.227E+10
  15    0.483   59.550    3.900     0.291     1.916   360.103  5.911E+09  9.924E+09
  16    0.517   63.450    3.900     0.288     1.475   336.883  4.795E+09  7.953E+09
  17    0.550   67.350    3.900     0.288     1.076   315.985  3.908E+09  6.395E+09
  18    0.583   71.250    3.900     0.288     0.721   295.318  3.172E+09  5.003E+09
  19    0.617   75.150    3.900     0.290     0.394   274.601  2.559E+09  3.808E+09
  20    0.650   79.050    3.900     0.293     0.070   254.430  2.050E+09  2.925E+09
  21    0.683   82.950    3.900     0.296    -0.284   234.581  1.590E+09  2.374E+09
  22    0.717   86.850    3.900     0.301    -0.717   211.198  1.183E+09  2.001E+09
  23    0.750   90.750    3.900     0.306    -1.241   179.913  8.422E+08  1.637E+09
  24    0.783   94.650    3.900     0.311    -1.724   146.875  5.876E+08  1.299E+09
  25    0.817   98.550    3.900     0.316    -2.089   110.599  3.830E+08  9.001E+08
  26    0.850  102.450    3.900     0.323    -2.173    81.217  2.474E+08  6.019E+08
  27    0.883  106.350    3.900     0.331    -2.142    58.257  1.522E+08  3.901E+08
  28    0.917  110.250    3.900     0.340    -2.027    42.284  8.264E+07  2.561E+08
  29    0.950  114.150    3.900     0.350    -1.815    30.014  3.619E+07  1.519E+08
  30    0.983  118.050    3.900     0.362    -1.459    16.024  1.049E+07  5.993E+07


Interpolated blade 2 properties:

Node  BlFract   RNodes  DRNodes PitchAxis  StrcTwst  BMassDen    FlpStff    EdgStff
 (-)      (-)      (m)      (m)       (-)     (deg)    (kg/m)     (Nm^2)     (Nm^2)
   1    0.017    4.950    3.900     0.493    15.592  2900.376  1.418E+11  1.397E+11
   2    0.050    8.850    3.900     0.464    15.207  2327.765  1.136E+11  1.121E+11
   3    0.083   12.750    3.900     0.433    14.183  1787.597  7.832E+10  8.174E+10
   4    0.117   16.650    3.900     0.403    12.690  1427.600  4.909E+10  5.711E+10
   5    0.150   20.550    3.900     0.376    11.022   982.268  3.237E+10  3.899E+10
   6    0.183   24.450    3.900     0.352     9.413   697.368  2.568E+10  2.820E+10
   7    0.217   28.350    3.900     0.334     8.102   550.623  2.081E+10  2.292E+10
   8    0.250   32.250    3.900     0.323     7.031   486.668  1.774E+10  2.090E+10
   9    0.283   36.150    3.900     0.315     6.006   455.223  1.567E+10  2.003E+10
  10    0.317   40.050    3.900     0.310     5.060   446.040  1.373E+10  1.947E+10
  11    0.350   43.950    3.900     0.306     4.223   438.608  1.182E+10  1.834E+10
  12    0.383   47.850    3.900     0.302     3.529   425.490  1.015E+10  1.670E+10
  13    0.417   51.750    3.900     0.298     2.928   407.973  8.652E+09  1.473E+10
  14    0.450   55.650    3.900     0.294     2.397   384.592  7.220E+09  1.227E+10
  15    0.483   59.550    3.900     0.291     1.916   360.103  5.911E+09  9.924E+09
  16    0.517   63.450    3.900     0.288     1.475   336.883  4.795E+09  7.953E+09
  17    0.550   67.350    3.900     0.288     1.076   315.985  3.908E+09  6.395E+09
  18    0.583   71.250    3.900     0.288     0.721   295.318  3.172E+09  5.003E+09
  19    0.617   75.150    3.900     0.290     0.394   274.601  2.559E+09  3.808E+09
  20    0.650   79.050    3.900     0.293     0.070   254.430  2.050E+09  2.925E+09
  21    0.683   82.950    3.900     0.296    -0.284   234.581  1.590E+09  2.374E+09
  22    0.717   86.850    3.900     0.301    -0.717   211.198  1.183E+09  2.001E+09
  23    0.750   90.750    3.900     0.306    -1.241   179.913  8.422E+08  1.637E+09
  24    0.783   94.650    3.900     0.311    -1.724   146.875  5.876E+08  1.299E+09
  25    0.817   98.550    3.900     0.316    -2.089   110.599  3.830E+08  9.001E+08
  26    0.850  102.450    3.900     0.323    -2.173    81.217  2.474E+08  6.019E+08
  27    0.883  106.350    3.900     0.331    -2.142    58.257  1.522E+08  3.901E+08
  28    0.917  110.250    3.900     0.340    -2.027    42.284  8.264E+07  2.561E+08
  29    0.950  114.150    3.900     0.350    -1.815    30.014  3.619E+07  1.519E+08
  30    0.983  118.050    3.900     0.362    -1.459    16.024  1.049E+07  5.993E+07


Interpolated blade 3 properties:

Node  BlFract   RNodes  DRNodes PitchAxis  StrcTwst  BMassDen    FlpStff    EdgStff
 (-)      (-)      (m)      (m)       (-)     (deg)    (kg/m)     (Nm^2)     (Nm^2)
   1    0.017    4.950    3.900     0.493    15.592  2900.376  1.418E+11  1.397E+11
   2    0.050    8.850    3.900     0.464    15.207  2327.765  1.136E+11  1.121E+11
   3    0.083   12.750    3.900     0.433    14.183  1787.597  7.832E+10  8.174E+10
   4    0.117   16.650    3.900     0.403    12.690  1427.600  4.909E+10  5.711E+10
   5    0.150   20.550    3.900     0.376    11.022   982.268  3.237E+10  3.899E+10
   6    0.183   24.450    3.900     0.352     9.413   697.368  2.568E+10  2.820E+10
   7    0.217   28.350    3.900     0.334     8.102   550.623  2.081E+10  2.292E+10
   8    0.250   32.250    3.900     0.323     7.031   486.668  1.774E+10  2.090E+10
   9    0.283   36.150    3.900     0.315     6.006   455.223  1.567E+10  2.003E+10
  10    0.317   40.050    3.900     0.310     5.060   446.040  1.373E+10  1.947E+10
  11    0.350   43.950    3.900     0.306     4.223   438.608  1.182E+10  1.834E+10
  12    0.383   47.850    3.900     0.302     3.529   425.490  1.015E+10  1.670E+10
  13    0.417   51.750    3.900     0.298     2.928   407.973  8.652E+09  1.473E+10
  14    0.450   55.650    3.900     0.294     2.397   384.592  7.220E+09  1.227E+10
  15    0.483   59.550    3.900     0.291     1.916   360.103  5.911E+09  9.924E+09
  16    0.517   63.450    3.900     0.288     1.475   336.883  4.795E+09  7.953E+09
  17    0.550   67.350    3.900     0.288     1.076   315.985  3.908E+09  6.395E+09
  18    0.583   71.250    3.900     0.288     0.721   295.318  3.172E+09  5.003E+09
  19    0.617   75.150    3.900     0.290     0.394   274.601  2.559E+09  3.808E+09
  20    0.650   79.050    3.900     0.293     0.070   254.430  2.050E+09  2.925E+09
  21    0.683   82.950    3.900     0.296    -0.284   234.581  1.590E+09  2.374E+09
  22    0.717   86.850    3.900     0.301    -0.717   211.198  1.183E+09  2.001E+09
  23    0.750   90.750    3.900     0.306    -1.241   179.913  8.422E+08  1.637E+09
  24    0.783   94.650    3.900     0.311    -1.724   146.875  5.876E+08  1.299E+09
  25    0.817   98.550    3.900     0.316    -2.089   110.599  3.830E+08  9.001E+08
  26    0.850  102.450    3.900     0.323    -2.173    81.217  2.474E+08  6.019E+08
  27    0.883  106.350    3.900     0.331    -2.142    58.257  1.522E+08  3.901E+08
  28    0.917  110.250    3.900     0.340    -2.027    42.284  8.264E+07  2.561E+08
  29    0.950  114.150    3.900     0.350    -1.815    30.014  3.619E+07  1.519E+08
  30    0.983  118.050    3.900     0.362    -1.459    16.024  1.049E+07  5.993E+07


Requested Outputs:


 Col   Parameter  Units     
 ---   ---------- ----------
   0   Time       (s)       
   1   Azimuth    (deg)     
   2   BldPitch1  (deg)     
   3   GenSpeed   (rpm)     
   4   IPDefl1    (m)       
   5   LSSGagMya  (kN-m)    
   6   LSSGagMza  (kN-m)    
   7   OoPDefl1   (m)       
   8   PtfmPitch  (deg)     
   9   PtfmRoll   (deg)     
  10   PtfmSurge  (m)       
  11   PtfmSway   (m)       
  12   RootFxc1   (kN)      
  13   RootFyc1   (kN)      
  14   RootFzc1   (kN)      
  15   RootMxc1   (kN-m)    
  16   RootMyc1   (kN-m)    
  17   RootMzc1   (kN-m)    
  18   RotSpeed   (rpm)     
  19   RotTorq    (kN-m)    
  20   Spn2MLxb1  (kN-m)    
  21   Spn2MLyb1  (kN-m)    
  22   TTDspTwst  (deg)     
  23   TwHt1TPxi  (m)       
  24   TwHt1TPyi  (m)       
  25   TwstDefl1  (deg)     
  26   YawBrFxp   (kN)      
  27   YawBrFyp   (kN)      
  28   YawBrFzp   (kN)      
  29   YawBrMxp   (kN-m)    
  30   YawBrMyp   (kN-m)    
  31   YawBrMzp   (kN-m)    
